REMARK  7 active torsions:
REMARK  status: ('A' for Active; 'I' for Inactive)
REMARK    1  A    between atoms: C_1  and  N_10 
REMARK    2  A    between atoms: C_6  and  N_26 
REMARK       I    between atoms: C_9  and  N_10 
REMARK    3  A    between atoms: C_9  and  C_12 
REMARK    4  A    between atoms: C_15  and  C_18 
REMARK    5  A    between atoms: C_18  and  N_19 
REMARK    6  A    between atoms: N_26  and  C_28 
REMARK    7  A    between atoms: C_33  and  C_36 
ROOT
ATOM      1  C   LIG     1      -1.792   0.104  -0.691  0.00  0.00     0.037 A 
ATOM      2  C   LIG     1      -2.502   0.146  -1.907  0.00  0.00     0.030 A 
ATOM      3  C   LIG     1      -3.887   0.358  -1.931  0.00  0.00     0.011 A 
ATOM      4  C   LIG     1      -4.628   0.553  -0.741  0.00  0.00    -0.035 A 
ATOM      5  C   LIG     1      -6.079   0.808  -0.973  0.00  0.00     0.050 C 
ATOM      6  C   LIG     1      -3.932   0.519   0.507  0.00  0.00     0.057 A 
ATOM      7  C   LIG     1      -2.530   0.307   0.500  0.00  0.00     0.060 A 
ENDROOT
BRANCH   1   8
ATOM      8  N   LIG     1      -0.477  -0.112  -0.810  0.00  0.00    -0.323 N 
ATOM      9  C   LIG     1       0.475  -0.429   0.026  0.00  0.00     0.256 C 
ATOM     10  O   LIG     1       0.164  -0.795   1.154  0.00  0.00    -0.267 OA
ATOM     11  H   LIG     1      -0.183  -0.030  -1.692  0.00  0.00     0.169 HD
BRANCH   9  12
ATOM     12  C   LIG     1       1.834  -0.420  -0.338  0.00  0.00     0.032 A 
ATOM     13  C   LIG     1       2.284  -0.044  -1.632  0.00  0.00     0.017 A 
ATOM     14  C   LIG     1       3.643  -0.093  -1.998  0.00  0.00     0.010 A 
ATOM     15  C   LIG     1       4.627  -0.515  -1.078  0.00  0.00    -0.030 A 
ATOM     16  C   LIG     1       4.209  -0.840   0.230  0.00  0.00     0.010 A 
ATOM     17  C   LIG     1       2.848  -0.801   0.582  0.00  0.00     0.017 A 
BRANCH  15  18
ATOM     18  C   LIG     1       6.052  -0.672  -1.469  0.00  0.00     0.311 C 
BRANCH  18  19
ATOM     19  N   LIG     1       6.988   0.381  -0.955  0.00  0.00     0.096 N 
ATOM     20  C   LIG     1       8.387  -0.121  -0.792  0.00  0.00     0.303 C 
ATOM     21  C   LIG     1       9.413   0.960  -0.376  0.00  0.00     0.302 C 
ATOM     22  N   LIG     1       9.316   2.139  -1.280  0.00  0.00     0.087 N 
ATOM     23  C   LIG     1      10.430   3.113  -1.136  0.00  0.00     0.310 C 
ATOM     24  C   LIG     1       7.950   2.736  -1.278  0.00  0.00     0.302 C 
ATOM     25  C   LIG     1       6.890   1.682  -1.691  0.00  0.00     0.303 C 
ENDBRANCH  18  19
ENDBRANCH  15  18
ENDBRANCH   9  12
ENDBRANCH   1   8
BRANCH   6  26
ATOM     26  N   LIG     1      -4.431   0.702   1.735  0.00  0.00    -0.191 N 
ATOM     27  H   LIG     1      -3.827   0.983   2.393  0.00  0.00     0.184 HD
BRANCH  26  28
ATOM     28  C   LIG     1      -5.669   0.557   2.145  0.00  0.00     0.683 A 
ATOM     29  N   LIG     1      -6.334  -0.622   2.045  0.00  0.00    -0.191 N 
ATOM     30  C   LIG     1      -7.652  -0.793   2.353  0.00  0.00     0.062 A 
ATOM     31  HN  LIG     1      -5.813  -1.435   1.717  1.00  0.00     0.184 HD
ATOM     32  C   LIG     1      -8.351   0.370   2.770  0.00  0.00     0.048 A 
ATOM     33  C   LIG     1      -7.654   1.584   2.907  0.00  0.00     0.108 A 
ATOM     34  N   LIG     1      -6.335   1.644   2.604  0.00  0.00    -0.202 N 
ATOM     35  HN  LIG     1      -5.834   2.524   2.724  1.00  0.00     0.183 HD
BRANCH  30  36
ATOM     36  C   LIG     1      -8.231  -2.097   2.231  0.00  0.00     0.007 A 
ATOM     37  C   LIG     1      -7.562  -3.156   1.559  0.00  0.00     0.016 A 
ATOM     38  C   LIG     1      -8.120  -4.442   1.440  0.00  0.00     0.018 A 
ATOM     39  C   LIG     1      -9.381  -4.681   2.006  0.00  0.00     0.087 A 
ATOM     40  N   LIG     1     -10.021  -3.678   2.650  0.00  0.00    -0.374 N 
ATOM     41  C   LIG     1      -9.497  -2.434   2.776  0.00  0.00     0.101 A 
ATOM     42  HN  LIG     1     -10.937  -3.866   3.058  1.00  0.00     0.164 HD
ENDBRANCH  30  36
ENDBRANCH  26  28
ENDBRANCH   6  26
TORSDOF 7
