REMARK  Name = 208908
REMARK                            x       y       z     vdW  Elec       q    Type
REMARK                         _______ _______ _______ _____ _____    ______ ____
ROOT
ATOM      1  C   LIG    1        0.597   3.025   3.058  0.00  0.00    +0.134 A 
ATOM      2  C   LIG    1        1.201   1.748   2.993  0.00  0.00    +0.041 A 
ATOM      3  C   LIG    1        2.619   1.712   3.073  0.00  0.00    +0.076 A 
ATOM      4  C   LIG    1        3.306   0.493   2.954  0.00  0.00    +0.029 A 
ATOM      5  C   LIG    1        2.587  -0.694   2.735  0.00  0.00    +0.013 A 
ATOM      6  C   LIG    1        1.177  -0.691   2.627  0.00  0.00    +0.018 A 
ATOM      7  N   LIG    1        3.326   2.860   3.236  0.00  0.00    -0.235 NA
ATOM      8  C   LIG    1        2.716   4.065   3.319  0.00  0.00    +0.223 A 
ATOM      9  C   LIG    1        0.496   0.537   2.794  0.00  0.00    +0.025 A 
ATOM     10  N   LIG    1        1.368   4.133   3.229  0.00  0.00    -0.220 NA
ENDROOT
BRANCH   6  11
ATOM     11  C   LIG    1        0.507  -1.895   2.300  0.00  0.00    +0.135 A 
ATOM     12  C   LIG    1       -0.789  -2.093   1.819  0.00  0.00    +0.050 A 
ATOM     13  C   LIG    1       -0.939  -3.446   1.547  0.00  0.00    +0.046 A 
ATOM     14  C   LIG    1        0.263  -4.056   1.887  0.00  0.00    +0.119 A 
ATOM     15  O   LIG    1        1.105  -3.108   2.349  0.00  0.00    -0.458 OA
BRANCH  14  16
ATOM     16  C   LIG    1        0.643  -5.466   1.762  0.00  0.00    +0.156 C 
BRANCH  16  17
ATOM     17  N   LIG    1        1.950  -5.526   1.074  0.00  0.00    -0.308 NA
ATOM     18  H   LIG    1        1.857  -5.024   0.188  0.00  0.00    +0.122 HD
BRANCH  17  19
ATOM     19  C   LIG    1        2.433  -6.882   0.759  0.00  0.00    +0.104 C 
BRANCH  19  20
ATOM     20  C   LIG    1        3.801  -6.863   0.045  0.00  0.00    +0.180 C 
BRANCH  20  21
ATOM     21  S   LIG    1        4.395  -8.534  -0.311  0.00  0.00    -0.033 S 
ATOM     22  C   LIG    1        3.203  -9.491  -1.269  0.00  0.00    +0.194 C 
ATOM     23  O   LIG    1        4.683  -9.290   1.058  0.00  0.00    -0.175 OA
ATOM     24  O   LIG    1        5.762  -8.450  -1.119  0.00  0.00    -0.175 OA
ENDBRANCH  20  21
ENDBRANCH  19  20
ENDBRANCH  17  19
ENDBRANCH  16  17
ENDBRANCH  14  16
ENDBRANCH   6  11
BRANCH   1  25
ATOM     25  N   LIG    1       -0.698   3.205   2.844  0.00  0.00    -0.299 N 
ATOM     26  H   LIG    1       -1.284   2.855   3.484  0.00  0.00    +0.154 HD
BRANCH  25  32
ATOM     27 CL   LIG    1       -4.971   4.391   0.455  0.00  0.00    -0.080 Cl
ATOM     28  C   LIG    1       -3.277   4.327   0.503  0.00  0.00    +0.084 A 
ATOM     29  C   LIG    1       -2.500   4.729  -0.606  0.00  0.00    +0.139 A 
ATOM     30  C   LIG    1       -1.095   4.692  -0.516  0.00  0.00    +0.049 A 
ATOM     31  C   LIG    1       -0.475   4.199   0.639  0.00  0.00    +0.027 A 
ATOM     32  C   LIG    1       -1.234   3.745   1.746  0.00  0.00    +0.034 A 
ATOM     33  C   LIG    1       -2.642   3.831   1.663  0.00  0.00    +0.047 A 
BRANCH  29  34
ATOM     34  O   LIG    1       -3.044   5.103  -1.691  0.00  0.00    -0.486 OA
BRANCH  34  35
ATOM     35  C   LIG    1       -3.028   4.457  -2.868  0.00  0.00    +0.264 C 
BRANCH  35  36
ATOM     36  C   LIG    1       -3.496   5.237  -4.038  0.00  0.00    -0.008 A 
ATOM     37  C   LIG    1       -3.720   6.635  -4.001  0.00  0.00    +0.007 A 
ATOM     38  C   LIG    1       -4.151   7.327  -5.148  0.00  0.00    +0.003 A 
ATOM     39  C   LIG    1       -4.367   6.630  -6.350  0.00  0.00    +0.038 A 
ATOM     40  C   LIG    1       -4.147   5.242  -6.409  0.00  0.00    +0.124 A 
ATOM     41  F   LIG    1       -4.345   4.592  -7.523  0.00  0.00    -0.205 F 
ATOM     42  C   LIG    1       -3.710   4.557  -5.260  0.00  0.00    +0.045 A 
ENDBRANCH  35  36
ENDBRANCH  34  35
ENDBRANCH  29  34
ENDBRANCH  25  32
ENDBRANCH   1  25
TORSDOF 11
