MODEL 1
REMARK VINA RESULT:     -11.0      0.000      0.000
REMARK  11 active torsions:
REMARK  status: ('A' for Active; 'I' for Inactive)
REMARK    1  A    between atoms: S2_3  and  C5_6 
REMARK    2  A    between atoms: C5_6  and  C6_7 
REMARK    3  A    between atoms: C6_7  and  N7_8 
REMARK    4  A    between atoms: N7_8  and  C8_11 
REMARK    5  A    between atoms: C8_11  and  C9_12 
REMARK    6  A    between atoms: C12_15  and  C14_17 
REMARK    7  A    between atoms: C21_26  and  N22_27 
REMARK    8  A    between atoms: N22_27  and  C23_29 
REMARK    9  A    between atoms: C26_32  and  O27_33 
REMARK   10  A    between atoms: O27_33  and  C28_34 
REMARK   11  A    between atoms: C28_34  and  C29_35 
ROOT
HETATM    1  C14 FMM A  91      16.778  31.523  35.241  1.00 38.14    -0.001 A 
HETATM    2  C15 FMM A  91      15.605  31.417  34.498  1.00 35.17     0.016 A 
HETATM    3  C16 FMM A  91      14.423  31.891  35.014  1.00 34.68     0.031 A 
HETATM    4  C17 FMM A  91      14.390  32.473  36.281  1.00 33.31     0.047 A 
HETATM    5  N18 FMM A  91      13.195  32.945  36.784  1.00 32.08    -0.352 N 
ATOM      6  H18 FMM A  91      12.343  32.868  36.228  1.00  0.00     0.166 HD
HETATM    7  C19 FMM A  91      13.145  33.523  38.037  1.00 32.80     0.182 A 
HETATM    8  N20 FMM A  91      14.291  33.632  38.798  1.00 33.06    -0.338 N 
ATOM      9  H20 FMM A  91      14.247  34.060  39.722  1.00  0.00     0.168 HD
HETATM   10  C21 FMM A  91      15.497  33.164  38.315  1.00 33.11     0.119 A 
HETATM   11  C39 FMM A  91      15.549  32.577  37.036  1.00 33.77     0.036 A 
HETATM   12  C40 FMM A  91      16.746  32.104  36.526  1.00 34.65     0.031 A 
ENDROOT
BRANCH  10  13
HETATM   13  N22 FMM A  91      16.656  33.275  39.082  1.00 33.98    -0.342 N 
ATOM     14  H22 FMM A  91      17.558  33.085  38.645  1.00  0.00     0.167 HD
BRANCH  13  15
HETATM   15  C23 FMM A  91      16.619  33.640  40.439  1.00 33.25     0.035 A 
HETATM   16  C24 FMM A  91      17.411  34.693  40.902  1.00 31.98     0.032 A 
HETATM   17  C25 FMM A  91      17.371  35.048  42.247  1.00 31.39     0.041 A 
HETATM   18  C26 FMM A  91      16.544  34.350  43.119  1.00 32.78     0.091 A 
HETATM   19  C36 FMM A  91      15.775  33.320  42.662  1.00 33.04     0.069 A 
HETATM   20 CL3  FMM A  91      14.782  32.493  43.754  1.00 34.74    -0.081 Cl
HETATM   21  C38 FMM A  91      15.802  32.956  41.334  1.00 32.28     0.056 A 
BRANCH  18  22
HETATM   22  O27 FMM A  91      16.472  34.691  44.496  1.00 32.72    -0.345 OA
BRANCH  22  23
HETATM   23  C28 FMM A  91      17.103  35.940  44.810  1.00 34.20     0.214 C 
BRANCH  23  24
HETATM   24  C29 FMM A  91      16.094  37.105  44.826  1.00 33.41    -0.031 A 
HETATM   25  C30 FMM A  91      16.518  38.363  45.195  1.00 32.49     0.009 A 
HETATM   26  C31 FMM A  91      15.625  39.415  45.208  1.00 32.79     0.004 A 
HETATM   27  C32 FMM A  91      14.309  39.211  44.849  1.00 32.60     0.042 A 
HETATM   28  C33 FMM A  91      13.881  37.958  44.479  1.00 33.26     0.117 A 
HETATM   29  C35 FMM A  91      14.764  36.901  44.466  1.00 33.74     0.051 A 
HETATM   30  F34 FMM A  91      12.628  37.770  44.134  1.00 33.03    -0.206 F 
ENDBRANCH  23  24
ENDBRANCH  22  23
ENDBRANCH  18  22
ENDBRANCH  13  15
ENDBRANCH  10  13
BRANCH   1  31
HETATM   31  C12 FMM A  91      18.045  31.046  34.678  1.00 40.70     0.086 A 
HETATM   32  C11 FMM A  91      18.123  30.325  33.512  1.00 42.97     0.040 A 
HETATM   33  C10 FMM A  91      19.371  30.091  33.275  1.00 44.99     0.037 A 
HETATM   34  C9  FMM A  91      20.083  30.647  34.275  1.00 47.90     0.079 A 
HETATM   35  O13 FMM A  91      19.281  31.306  35.274  1.00 44.76    -0.313 OA
BRANCH  34  36
HETATM   36  C8  FMM A  91      21.591  30.587  34.348  1.00 53.94     0.296 C 
BRANCH  36  37
HETATM   37  N7  FMM A  91      22.088  31.738  35.106  1.00 60.98    -0.069 N 
ATOM     38  H72 FMM A  91      21.346  32.400  35.333  1.00  0.00     0.277 HD
ATOM     39  H71 FMM A  91      22.664  32.356  34.534  1.00  0.00     0.277 HD
BRANCH  37  40
HETATM   40  C6  FMM A  91      22.798  31.269  36.304  1.00 65.50     0.247 C 
BRANCH  40  41
HETATM   41  C5  FMM A  91      21.840  31.288  37.501  1.00 70.88     0.167 C 
BRANCH  41  42
HETATM   42  S2  FMM A  91      21.687  32.984  38.129  1.00 75.43     0.142 S 
HETATM   43  C1  FMM A  91      20.069  33.605  37.764  1.00 73.29     0.161 C 
HETATM   44  O3  FMM A  91      21.893  32.990  39.561  1.00 74.33    -0.228 OA
HETATM   45  O4  FMM A  91      22.678  33.823  37.493  1.00 74.26    -0.228 OA
ENDBRANCH  41  42
ENDBRANCH  40  41
ENDBRANCH  37  40
ENDBRANCH  36  37
ENDBRANCH  34  36
ENDBRANCH   1  31
TORSDOF 11
ENDMDL
MODEL 2
REMARK VINA RESULT:     -10.2      1.419      1.669
REMARK  11 active torsions:
REMARK  status: ('A' for Active; 'I' for Inactive)
REMARK    1  A    between atoms: S2_3  and  C5_6 
REMARK    2  A    between atoms: C5_6  and  C6_7 
REMARK    3  A    between atoms: C6_7  and  N7_8 
REMARK    4  A    between atoms: N7_8  and  C8_11 
REMARK    5  A    between atoms: C8_11  and  C9_12 
REMARK    6  A    between atoms: C12_15  and  C14_17 
REMARK    7  A    between atoms: C21_26  and  N22_27 
REMARK    8  A    between atoms: N22_27  and  C23_29 
REMARK    9  A    between atoms: C26_32  and  O27_33 
REMARK   10  A    between atoms: O27_33  and  C28_34 
REMARK   11  A    between atoms: C28_34  and  C29_35 
ROOT
HETATM    1  C14 FMM A  91      17.329  31.762  34.863  1.00 38.14    -0.001 A 
HETATM    2  C15 FMM A  91      16.223  31.557  34.041  1.00 35.17     0.016 A 
HETATM    3  C16 FMM A  91      14.963  31.853  34.502  1.00 34.68     0.031 A 
HETATM    4  C17 FMM A  91      14.784  32.351  35.792  1.00 33.31     0.047 A 
HETATM    5  N18 FMM A  91      13.511  32.644  36.240  1.00 32.08    -0.352 N 
ATOM      6  H18 FMM A  91      12.710  32.495  35.626  1.00  0.00     0.166 HD
HETATM    7  C19 FMM A  91      13.316  33.137  37.514  1.00 32.80     0.182 A 
HETATM    8  N20 FMM A  91      14.393  33.340  38.353  1.00 33.06    -0.338 N 
ATOM      9  H20 FMM A  91      14.242  33.705  39.293  1.00  0.00     0.168 HD
HETATM   10  C21 FMM A  91      15.674  33.052  37.926  1.00 33.11     0.119 A 
HETATM   11  C39 FMM A  91      15.874  32.551  36.625  1.00 33.77     0.036 A 
HETATM   12  C40 FMM A  91      17.148  32.259  36.171  1.00 34.65     0.031 A 
ENDROOT
BRANCH  10  13
HETATM   13  N22 FMM A  91      16.763  33.258  38.772  1.00 33.98    -0.342 N 
ATOM     14  H22 FMM A  91      17.707  33.155  38.398  1.00  0.00     0.167 HD
BRANCH  13  15
HETATM   15  C23 FMM A  91      16.601  33.604  40.125  1.00 33.25     0.035 A 
HETATM   16  C24 FMM A  91      17.179  34.774  40.622  1.00 31.98     0.032 A 
HETATM   17  C25 FMM A  91      17.016  35.109  41.963  1.00 31.39     0.041 A 
HETATM   18  C26 FMM A  91      16.279  34.276  42.797  1.00 32.78     0.091 A 
HETATM   19  C36 FMM A  91      15.720  33.133  42.306  1.00 33.04     0.069 A 
HETATM   20 CL3  FMM A  91      14.831  32.143  43.351  1.00 34.74    -0.081 Cl
HETATM   21  C38 FMM A  91      15.871  32.786  40.982  1.00 32.28     0.056 A 
BRANCH  18  22
HETATM   22  O27 FMM A  91      16.086  34.592  44.168  1.00 32.72    -0.345 OA
BRANCH  22  23
HETATM   23  C28 FMM A  91      14.838  35.247  44.434  1.00 34.20     0.214 C 
BRANCH  23  24
HETATM   24  C29 FMM A  91      15.034  36.737  44.776  1.00 33.41    -0.031 A 
HETATM   25  C30 FMM A  91      16.304  37.269  44.783  1.00 32.49     0.009 A 
HETATM   26  C31 FMM A  91      16.492  38.603  45.082  1.00 32.79     0.004 A 
HETATM   27  C32 FMM A  91      15.410  39.406  45.372  1.00 32.60     0.042 A 
HETATM   28  C33 FMM A  91      14.139  38.881  45.365  1.00 33.26     0.117 A 
HETATM   29  C35 FMM A  91      13.942  37.550  45.071  1.00 33.74     0.051 A 
HETATM   30  F34 FMM A  91      13.111  39.652  45.636  1.00 33.03    -0.206 F 
ENDBRANCH  23  24
ENDBRANCH  22  23
ENDBRANCH  18  22
ENDBRANCH  13  15
ENDBRANCH  10  13
BRANCH   1  31
HETATM   31  C12 FMM A  91      18.676  31.477  34.360  1.00 40.70     0.086 A 
HETATM   32  C11 FMM A  91      19.236  30.224  34.385  1.00 42.97     0.040 A 
HETATM   33  C10 FMM A  91      20.405  30.303  33.843  1.00 44.99     0.037 A 
HETATM   34  C9  FMM A  91      20.597  31.587  33.481  1.00 47.90     0.079 A 
HETATM   35  O13 FMM A  91      19.493  32.459  33.794  1.00 44.76    -0.313 OA
BRANCH  34  36
HETATM   36  C8  FMM A  91      21.856  32.076  32.805  1.00 53.94     0.296 C 
BRANCH  36  37
HETATM   37  N7  FMM A  91      22.588  32.958  33.718  1.00 60.98    -0.069 N 
ATOM     38  H72 FMM A  91      22.015  33.258  34.507  1.00  0.00     0.277 HD
ATOM     39  H71 FMM A  91      22.765  33.876  33.309  1.00  0.00     0.277 HD
BRANCH  37  40
HETATM   40  C6  FMM A  91      23.827  32.298  34.154  1.00 65.50     0.247 C 
BRANCH  40  41
HETATM   41  C5  FMM A  91      24.562  33.204  35.148  1.00 70.88     0.167 C 
BRANCH  41  42
HETATM   42  S2  FMM A  91      23.407  33.759  36.432  1.00 75.43     0.142 S 
HETATM   43  C1  FMM A  91      24.315  34.473  37.775  1.00 73.29     0.161 C 
HETATM   44  O3  FMM A  91      22.508  34.749  35.880  1.00 74.33    -0.228 OA
HETATM   45  O4  FMM A  91      22.646  32.628  36.914  1.00 74.26    -0.228 OA
ENDBRANCH  41  42
ENDBRANCH  40  41
ENDBRANCH  37  40
ENDBRANCH  36  37
ENDBRANCH  34  36
ENDBRANCH   1  31
TORSDOF 11
ENDMDL
MODEL 3
REMARK VINA RESULT:     -10.0      5.645     10.424
REMARK  11 active torsions:
REMARK  status: ('A' for Active; 'I' for Inactive)
REMARK    1  A    between atoms: S2_3  and  C5_6 
REMARK    2  A    between atoms: C5_6  and  C6_7 
REMARK    3  A    between atoms: C6_7  and  N7_8 
REMARK    4  A    between atoms: N7_8  and  C8_11 
REMARK    5  A    between atoms: C8_11  and  C9_12 
REMARK    6  A    between atoms: C12_15  and  C14_17 
REMARK    7  A    between atoms: C21_26  and  N22_27 
REMARK    8  A    between atoms: N22_27  and  C23_29 
REMARK    9  A    between atoms: C26_32  and  O27_33 
REMARK   10  A    between atoms: O27_33  and  C28_34 
REMARK   11  A    between atoms: C28_34  and  C29_35 
ROOT
HETATM    1  C14 FMM A  91      17.984  33.145  37.714  1.00 38.14    -0.001 A 
HETATM    2  C15 FMM A  91      17.357  32.007  37.212  1.00 35.17     0.016 A 
HETATM    3  C16 FMM A  91      17.866  31.379  36.101  1.00 34.68     0.031 A 
HETATM    4  C17 FMM A  91      19.003  31.877  35.468  1.00 33.31     0.047 A 
HETATM    5  N18 FMM A  91      19.502  31.233  34.354  1.00 32.08    -0.352 N 
ATOM      6  H18 FMM A  91      19.037  30.397  34.000  1.00  0.00     0.166 HD
HETATM    7  C19 FMM A  91      20.627  31.715  33.715  1.00 32.80     0.182 A 
HETATM    8  N20 FMM A  91      21.262  32.845  34.185  1.00 33.06    -0.338 N 
ATOM      9  H20 FMM A  91      22.093  33.195  33.709  1.00  0.00     0.168 HD
HETATM   10  C21 FMM A  91      20.780  33.506  35.297  1.00 33.11     0.119 A 
HETATM   11  C39 FMM A  91      19.633  33.015  35.951  1.00 33.77     0.036 A 
HETATM   12  C40 FMM A  91      19.132  33.656  37.070  1.00 34.65     0.031 A 
ENDROOT
BRANCH  10  13
HETATM   13  N22 FMM A  91      21.422  34.649  35.774  1.00 33.98    -0.342 N 
ATOM     14  H22 FMM A  91      20.984  35.559  35.630  1.00  0.00     0.167 HD
BRANCH  13  15
HETATM   15  C23 FMM A  91      22.655  34.584  36.447  1.00 33.25     0.035 A 
HETATM   16  C24 FMM A  91      23.721  33.879  35.887  1.00 31.98     0.032 A 
HETATM   17  C25 FMM A  91      24.938  33.818  36.560  1.00 31.39     0.041 A 
HETATM   18  C26 FMM A  91      25.082  34.459  37.784  1.00 32.78     0.091 A 
HETATM   19  C36 FMM A  91      24.035  35.144  38.328  1.00 33.04     0.069 A 
HETATM   20 CL3  FMM A  91      24.247  35.911  39.821  1.00 34.74    -0.081 Cl
HETATM   21  C38 FMM A  91      22.824  35.216  37.676  1.00 32.28     0.056 A 
BRANCH  18  22
HETATM   22  O27 FMM A  91      26.311  34.424  38.493  1.00 32.72    -0.345 OA
BRANCH  22  23
HETATM   23  C28 FMM A  91      27.430  34.043  37.680  1.00 34.20     0.214 C 
BRANCH  23  24
HETATM   24  C29 FMM A  91      28.417  35.209  37.478  1.00 33.41    -0.031 A 
HETATM   25  C30 FMM A  91      28.891  35.892  38.577  1.00 32.49     0.009 A 
HETATM   26  C31 FMM A  91      29.780  36.935  38.410  1.00 32.79     0.004 A 
HETATM   27  C32 FMM A  91      30.197  37.294  37.145  1.00 32.60     0.042 A 
HETATM   28  C33 FMM A  91      29.727  36.615  36.046  1.00 33.26     0.117 A 
HETATM   29  C35 FMM A  91      28.838  35.574  36.202  1.00 33.74     0.051 A 
HETATM   30  F34 FMM A  91      30.131  36.957  34.844  1.00 33.03    -0.206 F 
ENDBRANCH  23  24
ENDBRANCH  22  23
ENDBRANCH  18  22
ENDBRANCH  13  15
ENDBRANCH  10  13
BRANCH   1  31
HETATM   31  C12 FMM A  91      17.461  33.797  38.918  1.00 40.70     0.086 A 
HETATM   32  C11 FMM A  91      16.123  34.009  39.134  1.00 42.97     0.040 A 
HETATM   33  C10 FMM A  91      15.992  34.568  40.291  1.00 44.99     0.037 A 
HETATM   34  C9  FMM A  91      17.228  34.719  40.808  1.00 47.90     0.079 A 
HETATM   35  O13 FMM A  91      18.286  34.239  39.955  1.00 44.76    -0.313 OA
BRANCH  34  36
HETATM   36  C8  FMM A  91      17.488  35.337  42.161  1.00 53.94     0.296 C 
BRANCH  36  37
HETATM   37  N7  FMM A  91      16.215  35.538  42.858  1.00 60.98    -0.069 N 
ATOM     38  H72 FMM A  91      15.476  34.939  42.489  1.00  0.00     0.277 HD
ATOM     39  H71 FMM A  91      15.794  36.441  42.639  1.00  0.00     0.277 HD
BRANCH  37  40
HETATM   40  C6  FMM A  91      16.409  35.353  44.303  1.00 65.50     0.247 C 
BRANCH  40  41
HETATM   41  C5  FMM A  91      15.182  35.884  45.052  1.00 70.88     0.167 C 
BRANCH  41  42
HETATM   42  S2  FMM A  91      14.753  37.531  44.422  1.00 75.43     0.142 S 
HETATM   43  C1  FMM A  91      13.968  38.468  45.704  1.00 73.29     0.161 C 
HETATM   44  O3  FMM A  91      15.956  38.215  43.996  1.00 74.33    -0.228 OA
HETATM   45  O4  FMM A  91      13.849  37.397  43.302  1.00 74.26    -0.228 OA
ENDBRANCH  41  42
ENDBRANCH  40  41
ENDBRANCH  37  40
ENDBRANCH  36  37
ENDBRANCH  34  36
ENDBRANCH   1  31
TORSDOF 11
ENDMDL
MODEL 4
REMARK VINA RESULT:      -9.9      4.622      9.534
REMARK  11 active torsions:
REMARK  status: ('A' for Active; 'I' for Inactive)
REMARK    1  A    between atoms: S2_3  and  C5_6 
REMARK    2  A    between atoms: C5_6  and  C6_7 
REMARK    3  A    between atoms: C6_7  and  N7_8 
REMARK    4  A    between atoms: N7_8  and  C8_11 
REMARK    5  A    between atoms: C8_11  and  C9_12 
REMARK    6  A    between atoms: C12_15  and  C14_17 
REMARK    7  A    between atoms: C21_26  and  N22_27 
REMARK    8  A    between atoms: N22_27  and  C23_29 
REMARK    9  A    between atoms: C26_32  and  O27_33 
REMARK   10  A    between atoms: O27_33  and  C28_34 
REMARK   11  A    between atoms: C28_34  and  C29_35 
ROOT
HETATM    1  C14 FMM A  91      15.326  33.095  38.694  1.00 38.14    -0.001 A 
HETATM    2  C15 FMM A  91      14.110  33.353  38.066  1.00 35.17     0.016 A 
HETATM    3  C16 FMM A  91      13.931  33.001  36.751  1.00 34.68     0.031 A 
HETATM    4  C17 FMM A  91      14.962  32.392  36.037  1.00 33.31     0.047 A 
HETATM    5  N18 FMM A  91      14.766  32.044  34.716  1.00 32.08    -0.352 N 
ATOM      6  H18 FMM A  91      13.868  32.233  34.269  1.00  0.00     0.166 HD
HETATM    7  C19 FMM A  91      15.777  31.441  33.995  1.00 32.80     0.182 A 
HETATM    8  N20 FMM A  91      16.995  31.183  34.590  1.00 33.06    -0.338 N 
ATOM      9  H20 FMM A  91      17.737  30.737  34.052  1.00  0.00     0.168 HD
HETATM   10  C21 FMM A  91      17.214  31.525  35.910  1.00 33.11     0.119 A 
HETATM   11  C39 FMM A  91      16.182  32.138  36.646  1.00 33.77     0.036 A 
HETATM   12  C40 FMM A  91      16.374  32.486  37.972  1.00 34.65     0.031 A 
ENDROOT
BRANCH  10  13
HETATM   13  N22 FMM A  91      18.444  31.263  36.512  1.00 33.98    -0.342 N 
ATOM     14  H22 FMM A  91      18.618  30.335  36.899  1.00  0.00     0.167 HD
BRANCH  13  15
HETATM   15  C23 FMM A  91      19.453  32.238  36.603  1.00 33.25     0.035 A 
HETATM   16  C24 FMM A  91      19.758  32.815  37.837  1.00 31.98     0.032 A 
HETATM   17  C25 FMM A  91      20.756  33.781  37.919  1.00 31.39     0.041 A 
HETATM   18  C26 FMM A  91      21.441  34.164  36.772  1.00 32.78     0.091 A 
HETATM   19  C36 FMM A  91      21.136  33.599  35.569  1.00 33.04     0.069 A 
HETATM   20 CL3  FMM A  91      21.989  34.092  34.194  1.00 34.74    -0.081 Cl
HETATM   21  C38 FMM A  91      20.151  32.641  35.469  1.00 32.28     0.056 A 
BRANCH  18  22
HETATM   22  O27 FMM A  91      22.470  35.141  36.822  1.00 32.72    -0.345 OA
BRANCH  22  23
HETATM   23  C28 FMM A  91      23.334  35.006  37.959  1.00 34.20     0.214 C 
BRANCH  23  24
HETATM   24  C29 FMM A  91      24.705  34.418  37.571  1.00 33.41    -0.031 A 
HETATM   25  C30 FMM A  91      24.787  33.523  36.527  1.00 32.49     0.009 A 
HETATM   26  C31 FMM A  91      26.009  32.994  36.166  1.00 32.79     0.004 A 
HETATM   27  C32 FMM A  91      27.150  33.361  36.847  1.00 32.60     0.042 A 
HETATM   28  C33 FMM A  91      27.075  34.254  37.889  1.00 33.26     0.117 A 
HETATM   29  C35 FMM A  91      25.858  34.785  38.259  1.00 33.74     0.051 A 
HETATM   30  F34 FMM A  91      28.165  34.604  38.532  1.00 33.03    -0.206 F 
ENDBRANCH  23  24
ENDBRANCH  22  23
ENDBRANCH  18  22
ENDBRANCH  13  15
ENDBRANCH  10  13
BRANCH   1  31
HETATM   31  C12 FMM A  91      15.507  33.441  40.107  1.00 40.70     0.086 A 
HETATM   32  C11 FMM A  91      15.621  32.501  41.100  1.00 42.97     0.040 A 
HETATM   33  C10 FMM A  91      15.803  33.124  42.217  1.00 44.99     0.037 A 
HETATM   34  C9  FMM A  91      15.800  34.445  41.946  1.00 47.90     0.079 A 
HETATM   35  O13 FMM A  91      15.599  34.761  40.555  1.00 44.76    -0.313 OA
BRANCH  34  36
HETATM   36  C8  FMM A  91      15.990  35.505  43.005  1.00 53.94     0.296 C 
BRANCH  36  37
HETATM   37  N7  FMM A  91      14.976  35.339  44.049  1.00 60.98    -0.069 N 
ATOM     38  H72 FMM A  91      14.841  34.360  44.303  1.00  0.00     0.277 HD
ATOM     39  H71 FMM A  91      14.035  35.532  43.706  1.00  0.00     0.277 HD
BRANCH  37  40
HETATM   40  C6  FMM A  91      15.324  36.170  45.211  1.00 65.50     0.247 C 
BRANCH  40  41
HETATM   41  C5  FMM A  91      15.827  37.534  44.726  1.00 70.88     0.167 C 
BRANCH  41  42
HETATM   42  S2  FMM A  91      14.411  38.593  44.320  1.00 75.43     0.142 S 
HETATM   43  C1  FMM A  91      13.794  39.347  45.800  1.00 73.29     0.161 C 
HETATM   44  O3  FMM A  91      14.826  39.624  43.393  1.00 74.33    -0.228 OA
HETATM   45  O4  FMM A  91      13.368  37.792  43.718  1.00 74.26    -0.228 OA
ENDBRANCH  41  42
ENDBRANCH  40  41
ENDBRANCH  37  40
ENDBRANCH  36  37
ENDBRANCH  34  36
ENDBRANCH   1  31
TORSDOF 11
ENDMDL
MODEL 5
REMARK VINA RESULT:      -9.9      5.534     10.957
REMARK  11 active torsions:
REMARK  status: ('A' for Active; 'I' for Inactive)
REMARK    1  A    between atoms: S2_3  and  C5_6 
REMARK    2  A    between atoms: C5_6  and  C6_7 
REMARK    3  A    between atoms: C6_7  and  N7_8 
REMARK    4  A    between atoms: N7_8  and  C8_11 
REMARK    5  A    between atoms: C8_11  and  C9_12 
REMARK    6  A    between atoms: C12_15  and  C14_17 
REMARK    7  A    between atoms: C21_26  and  N22_27 
REMARK    8  A    between atoms: N22_27  and  C23_29 
REMARK    9  A    between atoms: C26_32  and  O27_33 
REMARK   10  A    between atoms: O27_33  and  C28_34 
REMARK   11  A    between atoms: C28_34  and  C29_35 
ROOT
HETATM    1  C14 FMM A  91      16.362  32.987  37.952  1.00 38.14    -0.001 A 
HETATM    2  C15 FMM A  91      15.041  33.023  37.513  1.00 35.17     0.016 A 
HETATM    3  C16 FMM A  91      14.712  32.495  36.288  1.00 34.68     0.031 A 
HETATM    4  C17 FMM A  91      15.695  31.929  35.477  1.00 33.31     0.047 A 
HETATM    5  N18 FMM A  91      15.348  31.402  34.249  1.00 32.08    -0.352 N 
ATOM      6  H18 FMM A  91      14.375  31.429  33.942  1.00  0.00     0.166 HD
HETATM    7  C19 FMM A  91      16.309  30.838  33.435  1.00 32.80     0.182 A 
HETATM    8  N20 FMM A  91      17.627  30.798  33.841  1.00 33.06    -0.338 N 
ATOM      9  H20 FMM A  91      18.332  30.380  33.235  1.00  0.00     0.168 HD
HETATM   10  C21 FMM A  91      17.997  31.321  35.065  1.00 33.11     0.119 A 
HETATM   11  C39 FMM A  91      17.017  31.894  35.897  1.00 33.77     0.036 A 
HETATM   12  C40 FMM A  91      17.360  32.421  37.130  1.00 34.65     0.031 A 
ENDROOT
BRANCH  10  13
HETATM   13  N22 FMM A  91      19.329  31.280  35.477  1.00 33.98    -0.342 N 
ATOM     14  H22 FMM A  91      19.582  30.693  36.272  1.00  0.00     0.167 HD
BRANCH  13  15
HETATM   15  C23 FMM A  91      20.333  32.021  34.830  1.00 33.25     0.035 A 
HETATM   16  C24 FMM A  91      20.603  33.331  35.232  1.00 31.98     0.032 A 
HETATM   17  C25 FMM A  91      21.598  34.060  34.586  1.00 31.39     0.041 A 
HETATM   18  C26 FMM A  91      22.312  33.479  33.546  1.00 32.78     0.091 A 
HETATM   19  C36 FMM A  91      22.041  32.201  33.155  1.00 33.04     0.069 A 
HETATM   20 CL3  FMM A  91      22.930  31.527  31.883  1.00 34.74    -0.081 Cl
HETATM   21  C38 FMM A  91      21.061  31.464  33.783  1.00 32.28     0.056 A 
BRANCH  18  22
HETATM   22  O27 FMM A  91      23.338  34.192  32.870  1.00 32.72    -0.345 OA
BRANCH  22  23
HETATM   23  C28 FMM A  91      24.642  33.991  33.435  1.00 34.20     0.214 C 
BRANCH  23  24
HETATM   24  C29 FMM A  91      25.760  34.424  32.466  1.00 33.41    -0.031 A 
HETATM   25  C30 FMM A  91      25.941  33.732  31.289  1.00 32.49     0.009 A 
HETATM   26  C31 FMM A  91      26.935  34.113  30.411  1.00 32.79     0.004 A 
HETATM   27  C32 FMM A  91      27.745  35.188  30.707  1.00 32.60     0.042 A 
HETATM   28  C33 FMM A  91      27.568  35.884  31.880  1.00 33.26     0.117 A 
HETATM   29  C35 FMM A  91      26.580  35.509  32.765  1.00 33.74     0.051 A 
HETATM   30  F34 FMM A  91      28.339  36.910  32.155  1.00 33.03    -0.206 F 
ENDBRANCH  23  24
ENDBRANCH  22  23
ENDBRANCH  18  22
ENDBRANCH  13  15
ENDBRANCH  10  13
BRANCH   1  31
HETATM   31  C12 FMM A  91      16.708  33.521  39.272  1.00 40.70     0.086 A 
HETATM   32  C11 FMM A  91      17.954  34.009  39.580  1.00 42.97     0.040 A 
HETATM   33  C10 FMM A  91      17.923  34.431  40.801  1.00 44.99     0.037 A 
HETATM   34  C9  FMM A  91      16.678  34.212  41.272  1.00 47.90     0.079 A 
HETATM   35  O13 FMM A  91      15.788  33.595  40.321  1.00 44.76    -0.313 OA
BRANCH  34  36
HETATM   36  C8  FMM A  91      16.249  34.579  42.672  1.00 53.94     0.296 C 
BRANCH  36  37
HETATM   37  N7  FMM A  91      16.738  35.922  42.996  1.00 60.98    -0.069 N 
ATOM     38  H72 FMM A  91      16.129  36.653  42.627  1.00  0.00     0.277 HD
ATOM     39  H71 FMM A  91      17.583  36.160  42.476  1.00  0.00     0.277 HD
BRANCH  37  40
HETATM   40  C6  FMM A  91      16.929  36.040  44.449  1.00 65.50     0.247 C 
BRANCH  40  41
HETATM   41  C5  FMM A  91      15.568  36.246  45.124  1.00 70.88     0.167 C 
BRANCH  41  42
HETATM   42  S2  FMM A  91      14.756  37.707  44.418  1.00 75.43     0.142 S 
HETATM   43  C1  FMM A  91      13.852  38.551  45.686  1.00 73.29     0.161 C 
HETATM   44  O3  FMM A  91      15.755  38.598  43.867  1.00 74.33    -0.228 OA
HETATM   45  O4  FMM A  91      13.847  37.294  43.373  1.00 74.26    -0.228 OA
ENDBRANCH  41  42
ENDBRANCH  40  41
ENDBRANCH  37  40
ENDBRANCH  36  37
ENDBRANCH  34  36
ENDBRANCH   1  31
TORSDOF 11
ENDMDL
MODEL 6
REMARK VINA RESULT:      -9.9      1.905      2.351
REMARK  11 active torsions:
REMARK  status: ('A' for Active; 'I' for Inactive)
REMARK    1  A    between atoms: S2_3  and  C5_6 
REMARK    2  A    between atoms: C5_6  and  C6_7 
REMARK    3  A    between atoms: C6_7  and  N7_8 
REMARK    4  A    between atoms: N7_8  and  C8_11 
REMARK    5  A    between atoms: C8_11  and  C9_12 
REMARK    6  A    between atoms: C12_15  and  C14_17 
REMARK    7  A    between atoms: C21_26  and  N22_27 
REMARK    8  A    between atoms: N22_27  and  C23_29 
REMARK    9  A    between atoms: C26_32  and  O27_33 
REMARK   10  A    between atoms: O27_33  and  C28_34 
REMARK   11  A    between atoms: C28_34  and  C29_35 
ROOT
HETATM    1  C14 FMM A  91      16.476  31.569  35.271  1.00 38.14    -0.001 A 
HETATM    2  C15 FMM A  91      15.293  31.615  34.538  1.00 35.17     0.016 A 
HETATM    3  C16 FMM A  91      14.161  32.153  35.099  1.00 34.68     0.031 A 
HETATM    4  C17 FMM A  91      14.186  32.647  36.402  1.00 33.31     0.047 A 
HETATM    5  N18 FMM A  91      13.039  33.186  36.951  1.00 32.08    -0.352 N 
ATOM      6  H18 FMM A  91      12.180  33.220  36.401  1.00  0.00     0.166 HD
HETATM    7  C19 FMM A  91      13.048  33.678  38.240  1.00 32.80     0.182 A 
HETATM    8  N20 FMM A  91      14.203  33.636  38.993  1.00 33.06    -0.338 N 
ATOM      9  H20 FMM A  91      14.202  34.002  39.944  1.00  0.00     0.168 HD
HETATM   10  C21 FMM A  91      15.361  33.100  38.465  1.00 33.11     0.119 A 
HETATM   11  C39 FMM A  91      15.354  32.599  37.148  1.00 33.77     0.036 A 
HETATM   12  C40 FMM A  91      16.502  32.062  36.594  1.00 34.65     0.031 A 
ENDROOT
BRANCH  10  13
HETATM   13  N22 FMM A  91      16.530  33.059  39.224  1.00 33.98    -0.342 N 
ATOM     14  H22 FMM A  91      17.381  32.687  38.801  1.00  0.00     0.167 HD
BRANCH  13  15
HETATM   15  C23 FMM A  91      16.572  33.512  40.554  1.00 33.25     0.035 A 
HETATM   16  C24 FMM A  91      17.448  34.539  40.915  1.00 31.98     0.032 A 
HETATM   17  C25 FMM A  91      17.485  34.982  42.234  1.00 31.39     0.041 A 
HETATM   18  C26 FMM A  91      16.651  34.399  43.181  1.00 32.78     0.091 A 
HETATM   19  C36 FMM A  91      15.800  33.394  42.822  1.00 33.04     0.069 A 
HETATM   20 CL3  FMM A  91      14.801  32.708  44.002  1.00 34.74    -0.081 Cl
HETATM   21  C38 FMM A  91      15.750  32.944  41.521  1.00 32.28     0.056 A 
BRANCH  18  22
HETATM   22  O27 FMM A  91      16.658  34.832  44.533  1.00 32.72    -0.345 OA
BRANCH  22  23
HETATM   23  C28 FMM A  91      17.230  36.135  44.714  1.00 34.20     0.214 C 
BRANCH  23  24
HETATM   24  C29 FMM A  91      16.150  37.232  44.779  1.00 33.41    -0.031 A 
HETATM   25  C30 FMM A  91      16.492  38.494  45.214  1.00 32.49     0.009 A 
HETATM   26  C31 FMM A  91      15.535  39.487  45.272  1.00 32.79     0.004 A 
HETATM   27  C32 FMM A  91      14.237  39.220  44.891  1.00 32.60     0.042 A 
HETATM   28  C33 FMM A  91      13.891  37.964  44.454  1.00 33.26     0.117 A 
HETATM   29  C35 FMM A  91      14.838  36.965  44.396  1.00 33.74     0.051 A 
HETATM   30  F34 FMM A  91      12.654  37.716  44.088  1.00 33.03    -0.206 F 
ENDBRANCH  23  24
ENDBRANCH  22  23
ENDBRANCH  18  22
ENDBRANCH  13  15
ENDBRANCH  10  13
BRANCH   1  31
HETATM   31  C12 FMM A  91      17.693  31.025  34.662  1.00 40.70     0.086 A 
HETATM   32  C11 FMM A  91      17.686  30.283  33.507  1.00 42.97     0.040 A 
HETATM   33  C10 FMM A  91      18.910  29.987  33.220  1.00 44.99     0.037 A 
HETATM   34  C9  FMM A  91      19.691  30.525  34.178  1.00 47.90     0.079 A 
HETATM   35  O13 FMM A  91      18.965  31.236  35.200  1.00 44.76    -0.313 OA
BRANCH  34  36
HETATM   36  C8  FMM A  91      21.196  30.396  34.186  1.00 53.94     0.296 C 
BRANCH  36  37
HETATM   37  N7  FMM A  91      21.696  30.444  32.810  1.00 60.98    -0.069 N 
ATOM     38  H72 FMM A  91      22.079  31.359  32.571  1.00  0.00     0.277 HD
ATOM     39  H71 FMM A  91      20.941  30.418  32.125  1.00  0.00     0.277 HD
BRANCH  37  40
HETATM   40  C6  FMM A  91      22.672  29.364  32.602  1.00 65.50     0.247 C 
BRANCH  40  41
HETATM   41  C5  FMM A  91      23.753  29.442  33.687  1.00 70.88     0.167 C 
BRANCH  41  42
HETATM   42  S2  FMM A  91      24.846  30.851  33.353  1.00 75.43     0.142 S 
HETATM   43  C1  FMM A  91      24.580  32.107  34.574  1.00 73.29     0.161 C 
HETATM   44  O3  FMM A  91      26.226  30.416  33.404  1.00 74.33    -0.228 OA
HETATM   45  O4  FMM A  91      24.555  31.385  32.042  1.00 74.26    -0.228 OA
ENDBRANCH  41  42
ENDBRANCH  40  41
ENDBRANCH  37  40
ENDBRANCH  36  37
ENDBRANCH  34  36
ENDBRANCH   1  31
TORSDOF 11
ENDMDL
MODEL 7
REMARK VINA RESULT:      -9.8      4.153      8.630
REMARK  11 active torsions:
REMARK  status: ('A' for Active; 'I' for Inactive)
REMARK    1  A    between atoms: S2_3  and  C5_6 
REMARK    2  A    between atoms: C5_6  and  C6_7 
REMARK    3  A    between atoms: C6_7  and  N7_8 
REMARK    4  A    between atoms: N7_8  and  C8_11 
REMARK    5  A    between atoms: C8_11  and  C9_12 
REMARK    6  A    between atoms: C12_15  and  C14_17 
REMARK    7  A    between atoms: C21_26  and  N22_27 
REMARK    8  A    between atoms: N22_27  and  C23_29 
REMARK    9  A    between atoms: C26_32  and  O27_33 
REMARK   10  A    between atoms: O27_33  and  C28_34 
REMARK   11  A    between atoms: C28_34  and  C29_35 
ROOT
HETATM    1  C14 FMM A  91      15.866  32.896  37.789  1.00 38.14    -0.001 A 
HETATM    2  C15 FMM A  91      14.623  33.197  37.238  1.00 35.17     0.016 A 
HETATM    3  C16 FMM A  91      14.317  32.772  35.968  1.00 34.68     0.031 A 
HETATM    4  C17 FMM A  91      15.247  32.046  35.224  1.00 33.31     0.047 A 
HETATM    5  N18 FMM A  91      14.923  31.625  33.949  1.00 32.08    -0.352 N 
ATOM      6  H18 FMM A  91      14.007  31.847  33.559  1.00  0.00     0.166 HD
HETATM    7  C19 FMM A  91      15.833  30.907  33.200  1.00 32.80     0.182 A 
HETATM    8  N20 FMM A  91      17.074  30.603  33.719  1.00 33.06    -0.338 N 
ATOM      9  H20 FMM A  91      17.741  30.071  33.160  1.00  0.00     0.168 HD
HETATM   10  C21 FMM A  91      17.420  31.015  34.991  1.00 33.11     0.119 A 
HETATM   11  C39 FMM A  91      16.492  31.747  35.757  1.00 33.77     0.036 A 
HETATM   12  C40 FMM A  91      16.811  32.168  37.036  1.00 34.65     0.031 A 
ENDROOT
BRANCH  10  13
HETATM   13  N22 FMM A  91      18.674  30.708  35.516  1.00 33.98    -0.342 N 
ATOM     14  H22 FMM A  91      18.914  29.730  35.683  1.00  0.00     0.167 HD
BRANCH  13  15
HETATM   15  C23 FMM A  91      19.618  31.703  35.823  1.00 33.25     0.035 A 
HETATM   16  C24 FMM A  91      20.134  32.514  34.810  1.00 31.98     0.032 A 
HETATM   17  C25 FMM A  91      21.070  33.496  35.121  1.00 31.39     0.041 A 
HETATM   18  C26 FMM A  91      21.483  33.662  36.438  1.00 32.78     0.091 A 
HETATM   19  C36 FMM A  91      20.978  32.865  37.422  1.00 33.04     0.069 A 
HETATM   20 CL3  FMM A  91      21.507  33.095  39.013  1.00 34.74    -0.081 Cl
HETATM   21  C38 FMM A  91      20.051  31.888  37.133  1.00 32.28     0.056 A 
BRANCH  18  22
HETATM   22  O27 FMM A  91      22.430  34.660  36.791  1.00 32.72    -0.345 OA
BRANCH  22  23
HETATM   23  C28 FMM A  91      23.767  34.158  36.928  1.00 34.20     0.214 C 
BRANCH  23  24
HETATM   24  C29 FMM A  91      24.528  34.857  38.071  1.00 33.41    -0.031 A 
HETATM   25  C30 FMM A  91      25.905  34.859  38.066  1.00 32.49     0.009 A 
HETATM   26  C31 FMM A  91      26.599  35.486  39.081  1.00 32.79     0.004 A 
HETATM   27  C32 FMM A  91      25.915  36.114  40.101  1.00 32.60     0.042 A 
HETATM   28  C33 FMM A  91      24.540  36.116  40.111  1.00 33.26     0.117 A 
HETATM   29  C35 FMM A  91      23.839  35.489  39.103  1.00 33.74     0.051 A 
HETATM   30  F34 FMM A  91      23.894  36.719  41.082  1.00 33.03    -0.206 F 
ENDBRANCH  23  24
ENDBRANCH  22  23
ENDBRANCH  18  22
ENDBRANCH  13  15
ENDBRANCH  10  13
BRANCH   1  31
HETATM   31  C12 FMM A  91      16.181  33.321  39.156  1.00 40.70     0.086 A 
HETATM   32  C11 FMM A  91      17.451  33.639  39.568  1.00 42.97     0.040 A 
HETATM   33  C10 FMM A  91      17.386  34.004  40.806  1.00 44.99     0.037 A 
HETATM   34  C9  FMM A  91      16.095  33.915  41.185  1.00 47.90     0.079 A 
HETATM   35  O13 FMM A  91      15.206  33.457  40.148  1.00 44.76    -0.313 OA
BRANCH  34  36
HETATM   36  C8  FMM A  91      15.616  34.266  42.574  1.00 53.94     0.296 C 
BRANCH  36  37
HETATM   37  N7  FMM A  91      16.141  35.580  42.953  1.00 60.98    -0.069 N 
ATOM     38  H72 FMM A  91      15.772  36.327  42.365  1.00  0.00     0.277 HD
ATOM     39  H71 FMM A  91      17.129  35.683  42.718  1.00  0.00     0.277 HD
BRANCH  37  40
HETATM   40  C6  FMM A  91      15.883  35.820  44.381  1.00 65.50     0.247 C 
BRANCH  40  41
HETATM   41  C5  FMM A  91      16.160  37.293  44.705  1.00 70.88     0.167 C 
BRANCH  41  42
HETATM   42  S2  FMM A  91      14.697  38.288  44.302  1.00 75.43     0.142 S 
HETATM   43  C1  FMM A  91      13.855  38.731  45.796  1.00 73.29     0.161 C 
HETATM   44  O3  FMM A  91      15.105  39.490  43.607  1.00 74.33    -0.228 OA
HETATM   45  O4  FMM A  91      13.810  37.519  43.459  1.00 74.26    -0.228 OA
ENDBRANCH  41  42
ENDBRANCH  40  41
ENDBRANCH  37  40
ENDBRANCH  36  37
ENDBRANCH  34  36
ENDBRANCH   1  31
TORSDOF 11
ENDMDL
MODEL 8
REMARK VINA RESULT:      -9.7      4.843     11.473
REMARK  11 active torsions:
REMARK  status: ('A' for Active; 'I' for Inactive)
REMARK    1  A    between atoms: S2_3  and  C5_6 
REMARK    2  A    between atoms: C5_6  and  C6_7 
REMARK    3  A    between atoms: C6_7  and  N7_8 
REMARK    4  A    between atoms: N7_8  and  C8_11 
REMARK    5  A    between atoms: C8_11  and  C9_12 
REMARK    6  A    between atoms: C12_15  and  C14_17 
REMARK    7  A    between atoms: C21_26  and  N22_27 
REMARK    8  A    between atoms: N22_27  and  C23_29 
REMARK    9  A    between atoms: C26_32  and  O27_33 
REMARK   10  A    between atoms: O27_33  and  C28_34 
REMARK   11  A    between atoms: C28_34  and  C29_35 
ROOT
HETATM    1  C14 FMM A  91      19.068  33.612  37.796  1.00 38.14    -0.001 A 
HETATM    2  C15 FMM A  91      19.858  34.739  38.011  1.00 35.17     0.016 A 
HETATM    3  C16 FMM A  91      21.056  34.871  37.351  1.00 34.68     0.031 A 
HETATM    4  C17 FMM A  91      21.489  33.881  36.471  1.00 33.31     0.047 A 
HETATM    5  N18 FMM A  91      22.694  34.030  35.814  1.00 32.08    -0.352 N 
ATOM      6  H18 FMM A  91      23.261  34.863  35.976  1.00  0.00     0.166 HD
HETATM    7  C19 FMM A  91      23.137  33.058  34.940  1.00 32.80     0.182 A 
HETATM    8  N20 FMM A  91      22.380  31.927  34.716  1.00 33.06    -0.338 N 
ATOM      9  H20 FMM A  91      22.713  31.213  34.069  1.00  0.00     0.168 HD
HETATM   10  C21 FMM A  91      21.172  31.757  35.363  1.00 33.11     0.119 A 
HETATM   11  C39 FMM A  91      20.717  32.749  36.253  1.00 33.77     0.036 A 
HETATM   12  C40 FMM A  91      19.508  32.605  36.911  1.00 34.65     0.031 A 
ENDROOT
BRANCH  10  13
HETATM   13  N22 FMM A  91      20.404  30.615  35.136  1.00 33.98    -0.342 N 
ATOM     14  H22 FMM A  91      20.393  29.878  35.842  1.00  0.00     0.167 HD
BRANCH  13  15
HETATM   15  C23 FMM A  91      19.645  30.448  33.965  1.00 33.25     0.035 A 
HETATM   16  C24 FMM A  91      20.271  30.080  32.772  1.00 31.98     0.032 A 
HETATM   17  C25 FMM A  91      19.513  29.918  31.616  1.00 31.39     0.041 A 
HETATM   18  C26 FMM A  91      18.140  30.125  31.657  1.00 32.78     0.091 A 
HETATM   19  C36 FMM A  91      17.534  30.488  32.825  1.00 33.04     0.069 A 
HETATM   20 CL3  FMM A  91      15.860  30.732  32.836  1.00 34.74    -0.081 Cl
HETATM   21  C38 FMM A  91      18.268  30.652  33.979  1.00 32.28     0.056 A 
BRANCH  18  22
HETATM   22  O27 FMM A  91      17.336  29.961  30.498  1.00 32.72    -0.345 OA
BRANCH  22  23
HETATM   23  C28 FMM A  91      18.088  29.634  29.322  1.00 34.20     0.214 C 
BRANCH  23  24
HETATM   24  C29 FMM A  91      17.522  30.328  28.067  1.00 33.41    -0.031 A 
HETATM   25  C30 FMM A  91      17.546  29.667  26.859  1.00 32.49     0.009 A 
HETATM   26  C31 FMM A  91      17.036  30.275  25.729  1.00 32.79     0.004 A 
HETATM   27  C32 FMM A  91      16.500  31.543  25.809  1.00 32.60     0.042 A 
HETATM   28  C33 FMM A  91      16.472  32.207  27.012  1.00 33.26     0.117 A 
HETATM   29  C35 FMM A  91      16.981  31.609  28.145  1.00 33.74     0.051 A 
HETATM   30  F34 FMM A  91      15.956  33.412  27.083  1.00 33.03    -0.206 F 
ENDBRANCH  23  24
ENDBRANCH  22  23
ENDBRANCH  18  22
ENDBRANCH  13  15
ENDBRANCH  10  13
BRANCH   1  31
HETATM   31  C12 FMM A  91      17.776  33.486  38.475  1.00 40.70     0.086 A 
HETATM   32  C11 FMM A  91      16.628  33.090  37.834  1.00 42.97     0.040 A 
HETATM   33  C10 FMM A  91      15.680  33.047  38.711  1.00 44.99     0.037 A 
HETATM   34  C9  FMM A  91      16.209  33.415  39.895  1.00 47.90     0.079 A 
HETATM   35  O13 FMM A  91      17.612  33.739  39.839  1.00 44.76    -0.313 OA
BRANCH  34  36
HETATM   36  C8  FMM A  91      15.406  33.484  41.173  1.00 53.94     0.296 C 
BRANCH  36  37
HETATM   37  N7  FMM A  91      16.312  33.423  42.322  1.00 60.98    -0.069 N 
ATOM     38  H72 FMM A  91      17.102  34.061  42.224  1.00  0.00     0.277 HD
ATOM     39  H71 FMM A  91      16.835  32.547  42.354  1.00  0.00     0.277 HD
BRANCH  37  40
HETATM   40  C6  FMM A  91      15.556  33.664  43.559  1.00 65.50     0.247 C 
BRANCH  40  41
HETATM   41  C5  FMM A  91      15.064  35.116  43.578  1.00 70.88     0.167 C 
BRANCH  41  42
HETATM   42  S2  FMM A  91      16.486  36.236  43.704  1.00 75.43     0.142 S 
HETATM   43  C1  FMM A  91      17.538  35.707  45.027  1.00 73.29     0.161 C 
HETATM   44  O3  FMM A  91      17.229  36.218  42.463  1.00 74.33    -0.228 OA
HETATM   45  O4  FMM A  91      16.018  37.578  43.969  1.00 74.26    -0.228 OA
ENDBRANCH  41  42
ENDBRANCH  40  41
ENDBRANCH  37  40
ENDBRANCH  36  37
ENDBRANCH  34  36
ENDBRANCH   1  31
TORSDOF 11
ENDMDL
MODEL 9
REMARK VINA RESULT:      -9.7      4.829     11.418
REMARK  11 active torsions:
REMARK  status: ('A' for Active; 'I' for Inactive)
REMARK    1  A    between atoms: S2_3  and  C5_6 
REMARK    2  A    between atoms: C5_6  and  C6_7 
REMARK    3  A    between atoms: C6_7  and  N7_8 
REMARK    4  A    between atoms: N7_8  and  C8_11 
REMARK    5  A    between atoms: C8_11  and  C9_12 
REMARK    6  A    between atoms: C12_15  and  C14_17 
REMARK    7  A    between atoms: C21_26  and  N22_27 
REMARK    8  A    between atoms: N22_27  and  C23_29 
REMARK    9  A    between atoms: C26_32  and  O27_33 
REMARK   10  A    between atoms: O27_33  and  C28_34 
REMARK   11  A    between atoms: C28_34  and  C29_35 
ROOT
HETATM    1  C14 FMM A  91      19.623  33.684  38.651  1.00 38.14    -0.001 A 
HETATM    2  C15 FMM A  91      20.859  33.687  39.294  1.00 35.17     0.016 A 
HETATM    3  C16 FMM A  91      22.013  33.596  38.555  1.00 34.68     0.031 A 
HETATM    4  C17 FMM A  91      21.956  33.493  37.166  1.00 33.31     0.047 A 
HETATM    5  N18 FMM A  91      23.126  33.404  36.439  1.00 32.08    -0.352 N 
ATOM      6  H18 FMM A  91      24.026  33.413  36.921  1.00  0.00     0.166 HD
HETATM    7  C19 FMM A  91      23.086  33.301  35.063  1.00 32.80     0.182 A 
HETATM    8  N20 FMM A  91      21.876  33.285  34.402  1.00 33.06    -0.338 N 
ATOM      9  H20 FMM A  91      21.854  33.210  33.386  1.00  0.00     0.168 HD
HETATM   10  C21 FMM A  91      20.693  33.372  35.110  1.00 33.11     0.119 A 
HETATM   11  C39 FMM A  91      20.732  33.479  36.513  1.00 33.77     0.036 A 
HETATM   12  C40 FMM A  91      19.562  33.572  37.246  1.00 34.65     0.031 A 
ENDROOT
BRANCH  10  13
HETATM   13  N22 FMM A  91      19.468  33.358  34.443  1.00 33.98    -0.342 N 
ATOM     14  H22 FMM A  91      18.918  34.217  34.401  1.00  0.00     0.167 HD
BRANCH  13  15
HETATM   15  C23 FMM A  91      18.968  32.198  33.826  1.00 33.25     0.035 A 
HETATM   16  C24 FMM A  91      17.742  31.665  34.230  1.00 31.98     0.032 A 
HETATM   17  C25 FMM A  91      17.254  30.515  33.616  1.00 31.39     0.041 A 
HETATM   18  C26 FMM A  91      17.991  29.906  32.608  1.00 32.78     0.091 A 
HETATM   19  C36 FMM A  91      19.190  30.429  32.221  1.00 33.04     0.069 A 
HETATM   20 CL3  FMM A  91      20.060  29.659  30.991  1.00 34.74    -0.081 Cl
HETATM   21  C38 FMM A  91      19.688  31.567  32.817  1.00 32.28     0.056 A 
BRANCH  18  22
HETATM   22  O27 FMM A  91      17.519  28.736  31.956  1.00 32.72    -0.345 OA
BRANCH  22  23
HETATM   23  C28 FMM A  91      16.329  28.952  31.184  1.00 34.20     0.214 C 
BRANCH  23  24
HETATM   24  C29 FMM A  91      16.645  29.553  29.800  1.00 33.41    -0.031 A 
HETATM   25  C30 FMM A  91      17.303  28.786  28.863  1.00 32.49     0.009 A 
HETATM   26  C31 FMM A  91      17.586  29.310  27.618  1.00 32.79     0.004 A 
HETATM   27  C32 FMM A  91      17.210  30.599  27.308  1.00 32.60     0.042 A 
HETATM   28  C33 FMM A  91      16.552  31.368  28.238  1.00 33.26     0.117 A 
HETATM   29  C35 FMM A  91      16.267  30.855  29.485  1.00 33.74     0.051 A 
HETATM   30  F34 FMM A  91      16.191  32.595  27.936  1.00 33.03    -0.206 F 
ENDBRANCH  23  24
ENDBRANCH  22  23
ENDBRANCH  18  22
ENDBRANCH  13  15
ENDBRANCH  10  13
BRANCH   1  31
HETATM   31  C12 FMM A  91      18.391  33.813  39.436  1.00 40.70     0.086 A 
HETATM   32  C11 FMM A  91      17.150  33.506  38.938  1.00 42.97     0.040 A 
HETATM   33  C10 FMM A  91      16.287  33.694  39.881  1.00 44.99     0.037 A 
HETATM   34  C9  FMM A  91      16.963  34.122  40.966  1.00 47.90     0.079 A 
HETATM   35  O13 FMM A  91      18.385  34.243  40.765  1.00 44.76    -0.313 OA
BRANCH  34  36
HETATM   36  C8  FMM A  91      16.294  34.447  42.281  1.00 53.94     0.296 C 
BRANCH  36  37
HETATM   37  N7  FMM A  91      16.696  35.787  42.714  1.00 60.98    -0.069 N 
ATOM     38  H72 FMM A  91      15.961  36.478  42.560  1.00  0.00     0.277 HD
ATOM     39  H71 FMM A  91      17.406  36.192  42.104  1.00  0.00     0.277 HD
BRANCH  37  40
HETATM   40  C6  FMM A  91      17.131  35.743  44.117  1.00 65.50     0.247 C 
BRANCH  40  41
HETATM   41  C5  FMM A  91      15.918  35.954  45.030  1.00 70.88     0.167 C 
BRANCH  41  42
HETATM   42  S2  FMM A  91      14.952  37.371  44.437  1.00 75.43     0.142 S 
HETATM   43  C1  FMM A  91      14.021  38.055  45.781  1.00 73.29     0.161 C 
HETATM   44  O3  FMM A  91      15.845  38.380  43.909  1.00 74.33    -0.228 OA
HETATM   45  O4  FMM A  91      14.046  36.934  43.399  1.00 74.26    -0.228 OA
ENDBRANCH  41  42
ENDBRANCH  40  41
ENDBRANCH  37  40
ENDBRANCH  36  37
ENDBRANCH  34  36
ENDBRANCH   1  31
TORSDOF 11
ENDMDL
