MODEL 1
REMARK VINA RESULT:     -10.6      0.000      0.000
REMARK  11 active torsions:
REMARK  status: ('A' for Active; 'I' for Inactive)
REMARK    1  A    between atoms: S2_3  and  C5_6 
REMARK    2  A    between atoms: C5_6  and  C6_7 
REMARK    3  A    between atoms: C6_7  and  N7_8 
REMARK    4  A    between atoms: N7_8  and  C8_11 
REMARK    5  A    between atoms: C8_11  and  C9_12 
REMARK    6  A    between atoms: C12_15  and  C14_17 
REMARK    7  A    between atoms: C21_26  and  N22_27 
REMARK    8  A    between atoms: N22_27  and  C23_29 
REMARK    9  A    between atoms: C26_32  and  O27_33 
REMARK   10  A    between atoms: O27_33  and  C28_34 
REMARK   11  A    between atoms: C28_34  and  C29_35 
ROOT
HETATM    1  C14 FMM A  91      16.941  31.593  35.074  1.00 38.14    -0.001 A 
HETATM    2  C15 FMM A  91      15.796  31.334  34.323  1.00 35.17     0.016 A 
HETATM    3  C16 FMM A  91      14.567  31.727  34.793  1.00 34.68     0.031 A 
HETATM    4  C17 FMM A  91      14.456  32.378  36.021  1.00 33.31     0.047 A 
HETATM    5  N18 FMM A  91      13.213  32.767  36.478  1.00 32.08    -0.352 N 
ATOM      6  H18 FMM A  91      12.383  32.577  35.916  1.00  0.00     0.166 HD
HETATM    7  C19 FMM A  91      13.087  33.412  37.692  1.00 32.80     0.182 A 
HETATM    8  N20 FMM A  91      14.203  33.672  38.460  1.00 33.06    -0.338 N 
ATOM      9  H20 FMM A  91      14.102  34.149  39.356  1.00  0.00     0.168 HD
HETATM   10  C21 FMM A  91      15.456  33.290  38.023  1.00 33.11     0.119 A 
HETATM   11  C39 FMM A  91      15.586  32.634  36.784  1.00 33.77     0.036 A 
HETATM   12  C40 FMM A  91      16.831  32.245  36.320  1.00 34.65     0.031 A 
ENDROOT
BRANCH  10  13
HETATM   13  N22 FMM A  91      16.585  33.554  38.798  1.00 33.98    -0.342 N 
ATOM     14  H22 FMM A  91      17.500  33.572  38.348  1.00  0.00     0.167 HD
BRANCH  13  15
HETATM   15  C23 FMM A  91      16.500  33.796  40.180  1.00 33.25     0.035 A 
HETATM   16  C24 FMM A  91      17.113  34.925  40.731  1.00 31.98     0.032 A 
HETATM   17  C25 FMM A  91      17.026  35.157  42.100  1.00 31.39     0.041 A 
HETATM   18  C26 FMM A  91      16.332  34.265  42.909  1.00 32.78     0.091 A 
HETATM   19  C36 FMM A  91      15.739  33.163  42.365  1.00 33.04     0.069 A 
HETATM   20 CL3  FMM A  91      14.904  32.099  43.381  1.00 34.74    -0.081 Cl
HETATM   21  C38 FMM A  91      15.814  32.917  41.012  1.00 32.28     0.056 A 
BRANCH  18  22
HETATM   22  O27 FMM A  91      16.218  34.476  44.308  1.00 32.72    -0.345 OA
BRANCH  22  23
HETATM   23  C28 FMM A  91      14.907  34.889  44.720  1.00 34.20     0.214 C 
BRANCH  23  24
HETATM   24  C29 FMM A  91      14.749  36.422  44.677  1.00 33.41    -0.031 A 
HETATM   25  C30 FMM A  91      13.521  36.968  44.375  1.00 32.49     0.009 A 
HETATM   26  C31 FMM A  91      13.364  38.338  44.340  1.00 32.79     0.004 A 
HETATM   27  C32 FMM A  91      14.435  39.164  44.610  1.00 32.60     0.042 A 
HETATM   28  C33 FMM A  91      15.663  38.625  44.913  1.00 33.26     0.117 A 
HETATM   29  C35 FMM A  91      15.829  37.258  44.948  1.00 33.74     0.051 A 
HETATM   30  F34 FMM A  91      16.678  39.416  45.174  1.00 33.03    -0.206 F 
ENDBRANCH  23  24
ENDBRANCH  22  23
ENDBRANCH  18  22
ENDBRANCH  13  15
ENDBRANCH  10  13
BRANCH   1  31
HETATM   31  C12 FMM A  91      18.256  31.203  34.558  1.00 40.70     0.086 A 
HETATM   32  C11 FMM A  91      18.433  30.205  33.633  1.00 42.97     0.040 A 
HETATM   33  C10 FMM A  91      19.694  30.133  33.364  1.00 44.99     0.037 A 
HETATM   34  C9  FMM A  91      20.320  31.067  34.110  1.00 47.90     0.079 A 
HETATM   35  O13 FMM A  91      19.439  31.834  34.954  1.00 44.76    -0.313 OA
BRANCH  34  36
HETATM   36  C8  FMM A  91      21.813  31.293  34.068  1.00 53.94     0.296 C 
BRANCH  36  37
HETATM   37  N7  FMM A  91      22.212  32.119  35.211  1.00 60.98    -0.069 N 
ATOM     38  H72 FMM A  91      21.455  32.721  35.534  1.00  0.00     0.277 HD
ATOM     39  H71 FMM A  91      22.875  32.848  34.946  1.00  0.00     0.277 HD
BRANCH  37  40
HETATM   40  C6  FMM A  91      22.732  31.258  36.283  1.00 65.50     0.247 C 
BRANCH  40  41
HETATM   41  C5  FMM A  91      21.767  31.292  37.473  1.00 70.88     0.167 C 
BRANCH  41  42
HETATM   42  S2  FMM A  91      21.787  32.945  38.223  1.00 75.43     0.142 S 
HETATM   43  C1  FMM A  91      20.284  33.793  37.822  1.00 73.29     0.161 C 
HETATM   44  O3  FMM A  91      21.900  32.823  39.661  1.00 74.33    -0.228 OA
HETATM   45  O4  FMM A  91      22.912  33.692  37.709  1.00 74.26    -0.228 OA
ENDBRANCH  41  42
ENDBRANCH  40  41
ENDBRANCH  37  40
ENDBRANCH  36  37
ENDBRANCH  34  36
ENDBRANCH   1  31
TORSDOF 11
ENDMDL
MODEL 2
REMARK VINA RESULT:     -10.0      4.806     11.288
REMARK  11 active torsions:
REMARK  status: ('A' for Active; 'I' for Inactive)
REMARK    1  A    between atoms: S2_3  and  C5_6 
REMARK    2  A    between atoms: C5_6  and  C6_7 
REMARK    3  A    between atoms: C6_7  and  N7_8 
REMARK    4  A    between atoms: N7_8  and  C8_11 
REMARK    5  A    between atoms: C8_11  and  C9_12 
REMARK    6  A    between atoms: C12_15  and  C14_17 
REMARK    7  A    between atoms: C21_26  and  N22_27 
REMARK    8  A    between atoms: N22_27  and  C23_29 
REMARK    9  A    between atoms: C26_32  and  O27_33 
REMARK   10  A    between atoms: O27_33  and  C28_34 
REMARK   11  A    between atoms: C28_34  and  C29_35 
ROOT
HETATM    1  C14 FMM A  91      19.931  33.872  38.913  1.00 38.14    -0.001 A 
HETATM    2  C15 FMM A  91      21.095  34.609  39.120  1.00 35.17     0.016 A 
HETATM    3  C16 FMM A  91      22.245  34.274  38.447  1.00 34.68     0.031 A 
HETATM    4  C17 FMM A  91      22.257  33.196  37.564  1.00 33.31     0.047 A 
HETATM    5  N18 FMM A  91      23.422  32.873  36.896  1.00 32.08    -0.352 N 
ATOM      6  H18 FMM A  91      24.266  33.424  37.051  1.00  0.00     0.166 HD
HETATM    7  C19 FMM A  91      23.450  31.808  36.018  1.00 32.80     0.182 A 
HETATM    8  N20 FMM A  91      22.314  31.055  35.803  1.00 33.06    -0.338 N 
ATOM      9  H20 FMM A  91      22.342  30.270  35.153  1.00  0.00     0.168 HD
HETATM   10  C21 FMM A  91      21.139  31.359  36.461  1.00 33.11     0.119 A 
HETATM   11  C39 FMM A  91      21.109  32.447  37.355  1.00 33.77     0.036 A 
HETATM   12  C40 FMM A  91      19.943  32.776  38.025  1.00 34.65     0.031 A 
ENDROOT
BRANCH  10  13
HETATM   13  N22 FMM A  91      19.990  30.600  36.243  1.00 33.98    -0.342 N 
ATOM     14  H22 FMM A  91      19.664  29.973  36.979  1.00  0.00     0.167 HD
BRANCH  13  15
HETATM   15  C23 FMM A  91      19.267  30.672  35.039  1.00 33.25     0.035 A 
HETATM   16  C24 FMM A  91      19.909  30.433  33.822  1.00 31.98     0.032 A 
HETATM   17  C25 FMM A  91      19.188  30.508  32.635  1.00 31.39     0.041 A 
HETATM   18  C26 FMM A  91      17.834  30.820  32.669  1.00 32.78     0.091 A 
HETATM   19  C36 FMM A  91      17.213  31.055  33.861  1.00 33.04     0.069 A 
HETATM   20 CL3  FMM A  91      15.564  31.434  33.863  1.00 34.74    -0.081 Cl
HETATM   21  C38 FMM A  91      17.911  30.985  35.046  1.00 32.28     0.056 A 
BRANCH  18  22
HETATM   22  O27 FMM A  91      17.066  30.896  31.477  1.00 32.72    -0.345 OA
BRANCH  22  23
HETATM   23  C28 FMM A  91      17.710  30.299  30.343  1.00 34.20     0.214 C 
BRANCH  23  24
HETATM   24  C29 FMM A  91      17.317  30.999  29.026  1.00 33.41    -0.031 A 
HETATM   25  C30 FMM A  91      17.286  30.273  27.857  1.00 32.49     0.009 A 
HETATM   26  C31 FMM A  91      16.931  30.886  26.672  1.00 32.79     0.004 A 
HETATM   27  C32 FMM A  91      16.604  32.226  26.658  1.00 32.60     0.042 A 
HETATM   28  C33 FMM A  91      16.633  32.955  27.823  1.00 33.26     0.117 A 
HETATM   29  C35 FMM A  91      16.989  32.353  29.009  1.00 33.74     0.051 A 
HETATM   30  F34 FMM A  91      16.317  34.230  27.804  1.00 33.03    -0.206 F 
ENDBRANCH  23  24
ENDBRANCH  22  23
ENDBRANCH  18  22
ENDBRANCH  13  15
ENDBRANCH  10  13
BRANCH   1  31
HETATM   31  C12 FMM A  91      18.696  34.249  39.605  1.00 40.70     0.086 A 
HETATM   32  C11 FMM A  91      17.504  34.451  38.954  1.00 42.97     0.040 A 
HETATM   33  C10 FMM A  91      16.611  34.735  39.843  1.00 44.99     0.037 A 
HETATM   34  C9  FMM A  91      17.220  34.722  41.046  1.00 47.90     0.079 A 
HETATM   35  O13 FMM A  91      18.627  34.414  40.990  1.00 44.76    -0.313 OA
BRANCH  34  36
HETATM   36  C8  FMM A  91      16.497  35.005  42.341  1.00 53.94     0.296 C 
BRANCH  36  37
HETATM   37  N7  FMM A  91      16.987  36.264  42.908  1.00 60.98    -0.069 N 
ATOM     38  H72 FMM A  91      16.425  37.063  42.615  1.00  0.00     0.277 HD
ATOM     39  H71 FMM A  91      17.875  36.551  42.497  1.00  0.00     0.277 HD
BRANCH  37  40
HETATM   40  C6  FMM A  91      17.065  36.148  44.371  1.00 65.50     0.247 C 
BRANCH  40  41
HETATM   41  C5  FMM A  91      15.652  36.211  44.961  1.00 70.88     0.167 C 
BRANCH  41  42
HETATM   42  S2  FMM A  91      14.836  37.739  44.420  1.00 75.43     0.142 S 
HETATM   43  C1  FMM A  91      13.910  38.422  45.767  1.00 73.29     0.161 C 
HETATM   44  O3  FMM A  91      15.835  38.695  43.991  1.00 74.33    -0.228 OA
HETATM   45  O4  FMM A  91      13.943  37.445  43.322  1.00 74.26    -0.228 OA
ENDBRANCH  41  42
ENDBRANCH  40  41
ENDBRANCH  37  40
ENDBRANCH  36  37
ENDBRANCH  34  36
ENDBRANCH   1  31
TORSDOF 11
ENDMDL
MODEL 3
REMARK VINA RESULT:      -9.8      5.262     11.595
REMARK  11 active torsions:
REMARK  status: ('A' for Active; 'I' for Inactive)
REMARK    1  A    between atoms: S2_3  and  C5_6 
REMARK    2  A    between atoms: C5_6  and  C6_7 
REMARK    3  A    between atoms: C6_7  and  N7_8 
REMARK    4  A    between atoms: N7_8  and  C8_11 
REMARK    5  A    between atoms: C8_11  and  C9_12 
REMARK    6  A    between atoms: C12_15  and  C14_17 
REMARK    7  A    between atoms: C21_26  and  N22_27 
REMARK    8  A    between atoms: N22_27  and  C23_29 
REMARK    9  A    between atoms: C26_32  and  O27_33 
REMARK   10  A    between atoms: O27_33  and  C28_34 
REMARK   11  A    between atoms: C28_34  and  C29_35 
ROOT
HETATM    1  C14 FMM A  91      19.152  33.609  38.729  1.00 38.14    -0.001 A 
HETATM    2  C15 FMM A  91      20.222  34.414  39.115  1.00 35.17     0.016 A 
HETATM    3  C16 FMM A  91      21.455  34.236  38.536  1.00 34.68     0.031 A 
HETATM    4  C17 FMM A  91      21.644  33.250  37.569  1.00 33.31     0.047 A 
HETATM    5  N18 FMM A  91      22.890  33.085  36.997  1.00 32.08    -0.352 N 
ATOM      6  H18 FMM A  91      23.664  33.685  37.284  1.00  0.00     0.166 HD
HETATM    7  C19 FMM A  91      23.094  32.113  36.038  1.00 32.80     0.182 A 
HETATM    8  N20 FMM A  91      22.055  31.296  35.645  1.00 33.06    -0.338 N 
ATOM      9  H20 FMM A  91      22.213  30.581  34.936  1.00  0.00     0.168 HD
HETATM   10  C21 FMM A  91      20.801  31.442  36.205  1.00 33.11     0.119 A 
HETATM   11  C39 FMM A  91      20.591  32.435  37.182  1.00 33.77     0.036 A 
HETATM   12  C40 FMM A  91      19.343  32.606  37.755  1.00 34.65     0.031 A 
ENDROOT
BRANCH  10  13
HETATM   13  N22 FMM A  91      19.749  30.618  35.807  1.00 33.98    -0.342 N 
ATOM     14  H22 FMM A  91      19.252  30.075  36.513  1.00  0.00     0.167 HD
BRANCH  13  15
HETATM   15  C23 FMM A  91      19.353  30.513  34.462  1.00 33.25     0.035 A 
HETATM   16  C24 FMM A  91      18.044  30.830  34.092  1.00 31.98     0.032 A 
HETATM   17  C25 FMM A  91      17.658  30.722  32.759  1.00 31.39     0.041 A 
HETATM   18  C26 FMM A  91      18.578  30.298  31.807  1.00 32.78     0.091 A 
HETATM   19  C36 FMM A  91      19.854  29.987  32.176  1.00 33.04     0.069 A 
HETATM   20 CL3  FMM A  91      20.946  29.473  30.990  1.00 34.74    -0.081 Cl
HETATM   21  C38 FMM A  91      20.253  30.088  33.490  1.00 32.28     0.056 A 
BRANCH  18  22
HETATM   22  O27 FMM A  91      18.220  30.185  30.438  1.00 32.72    -0.345 OA
BRANCH  22  23
HETATM   23  C28 FMM A  91      16.951  30.777  30.127  1.00 34.20     0.214 C 
BRANCH  23  24
HETATM   24  C29 FMM A  91      16.879  31.241  28.659  1.00 33.41    -0.031 A 
HETATM   25  C30 FMM A  91      17.229  30.365  27.654  1.00 32.49     0.009 A 
HETATM   26  C31 FMM A  91      17.163  30.767  26.335  1.00 32.79     0.004 A 
HETATM   27  C32 FMM A  91      16.745  32.042  26.020  1.00 32.60     0.042 A 
HETATM   28  C33 FMM A  91      16.394  32.920  27.019  1.00 33.26     0.117 A 
HETATM   29  C35 FMM A  91      16.459  32.529  28.338  1.00 33.74     0.051 A 
HETATM   30  F34 FMM A  91      15.992  34.132  26.713  1.00 33.03    -0.206 F 
ENDBRANCH  23  24
ENDBRANCH  22  23
ENDBRANCH  18  22
ENDBRANCH  13  15
ENDBRANCH  10  13
BRANCH   1  31
HETATM   31  C12 FMM A  91      17.828  33.819  39.322  1.00 40.70     0.086 A 
HETATM   32  C11 FMM A  91      16.661  33.705  38.610  1.00 42.97     0.040 A 
HETATM   33  C10 FMM A  91      15.679  33.915  39.422  1.00 44.99     0.037 A 
HETATM   34  C9  FMM A  91      16.207  34.168  40.636  1.00 47.90     0.079 A 
HETATM   35  O13 FMM A  91      17.647  34.135  40.671  1.00 44.76    -0.313 OA
BRANCH  34  36
HETATM   36  C8  FMM A  91      15.368  34.460  41.858  1.00 53.94     0.296 C 
BRANCH  36  37
HETATM   37  N7  FMM A  91      15.876  35.663  42.522  1.00 60.98    -0.069 N 
ATOM     38  H72 FMM A  91      15.189  36.417  42.531  1.00  0.00     0.277 HD
ATOM     39  H71 FMM A  91      16.598  36.130  41.973  1.00  0.00     0.277 HD
BRANCH  37  40
HETATM   40  C6  FMM A  91      16.342  35.320  43.873  1.00 65.50     0.247 C 
BRANCH  40  41
HETATM   41  C5  FMM A  91      15.342  35.856  44.905  1.00 70.88     0.167 C 
BRANCH  41  42
HETATM   42  S2  FMM A  91      14.749  37.490  44.383  1.00 75.43     0.142 S 
HETATM   43  C1  FMM A  91      14.026  38.326  45.768  1.00 73.29     0.161 C 
HETATM   44  O3  FMM A  91      15.859  38.269  43.877  1.00 74.33    -0.228 OA
HETATM   45  O4  FMM A  91      13.755  37.331  43.345  1.00 74.26    -0.228 OA
ENDBRANCH  41  42
ENDBRANCH  40  41
ENDBRANCH  37  40
ENDBRANCH  36  37
ENDBRANCH  34  36
ENDBRANCH   1  31
TORSDOF 11
ENDMDL
MODEL 4
REMARK VINA RESULT:      -9.8      2.942      4.352
REMARK  11 active torsions:
REMARK  status: ('A' for Active; 'I' for Inactive)
REMARK    1  A    between atoms: S2_3  and  C5_6 
REMARK    2  A    between atoms: C5_6  and  C6_7 
REMARK    3  A    between atoms: C6_7  and  N7_8 
REMARK    4  A    between atoms: N7_8  and  C8_11 
REMARK    5  A    between atoms: C8_11  and  C9_12 
REMARK    6  A    between atoms: C12_15  and  C14_17 
REMARK    7  A    between atoms: C21_26  and  N22_27 
REMARK    8  A    between atoms: N22_27  and  C23_29 
REMARK    9  A    between atoms: C26_32  and  O27_33 
REMARK   10  A    between atoms: O27_33  and  C28_34 
REMARK   11  A    between atoms: C28_34  and  C29_35 
ROOT
HETATM    1  C14 FMM A  91      17.105  31.499  35.108  1.00 38.14    -0.001 A 
HETATM    2  C15 FMM A  91      15.959  31.376  34.327  1.00 35.17     0.016 A 
HETATM    3  C16 FMM A  91      14.749  31.808  34.815  1.00 34.68     0.031 A 
HETATM    4  C17 FMM A  91      14.661  32.364  36.090  1.00 33.31     0.047 A 
HETATM    5  N18 FMM A  91      13.438  32.794  36.564  1.00 32.08    -0.352 N 
ATOM      6  H18 FMM A  91      12.606  32.704  35.980  1.00  0.00     0.166 HD
HETATM    7  C19 FMM A  91      13.334  33.346  37.825  1.00 32.80     0.182 A 
HETATM    8  N20 FMM A  91      14.451  33.471  38.624  1.00 33.06    -0.338 N 
ATOM      9  H20 FMM A  91      14.367  33.880  39.554  1.00  0.00     0.168 HD
HETATM   10  C21 FMM A  91      15.684  33.046  38.170  1.00 33.11     0.119 A 
HETATM   11  C39 FMM A  91      15.792  32.485  36.883  1.00 33.77     0.036 A 
HETATM   12  C40 FMM A  91      17.017  32.055  36.403  1.00 34.65     0.031 A 
ENDROOT
BRANCH  10  13
HETATM   13  N22 FMM A  91      16.816  33.173  38.976  1.00 33.98    -0.342 N 
ATOM     14  H22 FMM A  91      17.733  32.977  38.575  1.00  0.00     0.167 HD
BRANCH  13  15
HETATM   15  C23 FMM A  91      16.731  33.563  40.324  1.00 33.25     0.035 A 
HETATM   16  C24 FMM A  91      17.475  34.651  40.785  1.00 31.98     0.032 A 
HETATM   17  C25 FMM A  91      17.387  35.031  42.121  1.00 31.39     0.041 A 
HETATM   18  C26 FMM A  91      16.560  34.323  42.986  1.00 32.78     0.091 A 
HETATM   19  C36 FMM A  91      15.839  33.259  42.530  1.00 33.04     0.069 A 
HETATM   20 CL3  FMM A  91      14.844  32.421  43.612  1.00 34.74    -0.081 Cl
HETATM   21  C38 FMM A  91      15.913  32.870  41.211  1.00 32.28     0.056 A 
BRANCH  18  22
HETATM   22  O27 FMM A  91      16.441  34.689  44.353  1.00 32.72    -0.345 OA
BRANCH  22  23
HETATM   23  C28 FMM A  91      17.092  35.925  44.674  1.00 34.20     0.214 C 
BRANCH  23  24
HETATM   24  C29 FMM A  91      16.096  37.099  44.739  1.00 33.41    -0.031 A 
HETATM   25  C30 FMM A  91      16.536  38.340  45.144  1.00 32.49     0.009 A 
HETATM   26  C31 FMM A  91      15.655  39.400  45.202  1.00 32.79     0.004 A 
HETATM   27  C32 FMM A  91      14.334  39.222  44.851  1.00 32.60     0.042 A 
HETATM   28  C33 FMM A  91      13.888  37.986  44.445  1.00 33.26     0.117 A 
HETATM   29  C35 FMM A  91      14.760  36.920  44.388  1.00 33.74     0.051 A 
HETATM   30  F34 FMM A  91      12.630  37.822  44.108  1.00 33.03    -0.206 F 
ENDBRANCH  23  24
ENDBRANCH  22  23
ENDBRANCH  18  22
ENDBRANCH  13  15
ENDBRANCH  10  13
BRANCH   1  31
HETATM   31  C12 FMM A  91      18.401  31.068  34.577  1.00 40.70     0.086 A 
HETATM   32  C11 FMM A  91      19.472  30.752  35.376  1.00 42.97     0.040 A 
HETATM   33  C10 FMM A  91      20.442  30.381  34.609  1.00 44.99     0.037 A 
HETATM   34  C9  FMM A  91      20.005  30.464  33.336  1.00 47.90     0.079 A 
HETATM   35  O13 FMM A  91      18.646  30.925  33.209  1.00 44.76    -0.313 OA
BRANCH  34  36
HETATM   36  C8  FMM A  91      20.860  30.105  32.144  1.00 53.94     0.296 C 
BRANCH  36  37
HETATM   37  N7  FMM A  91      20.015  30.000  30.952  1.00 60.98    -0.069 N 
ATOM     38  H72 FMM A  91      20.508  30.281  30.104  1.00  0.00     0.277 HD
ATOM     39  H71 FMM A  91      19.281  30.708  30.936  1.00  0.00     0.277 HD
BRANCH  37  40
HETATM   40  C6  FMM A  91      19.472  28.637  30.851  1.00 65.50     0.247 C 
BRANCH  40  41
HETATM   41  C5  FMM A  91      18.319  28.625  29.841  1.00 70.88     0.167 C 
BRANCH  41  42
HETATM   42  S2  FMM A  91      17.231  27.213  30.181  1.00 75.43     0.142 S 
HETATM   43  C1  FMM A  91      17.531  25.936  28.989  1.00 73.29     0.161 C 
HETATM   44  O3  FMM A  91      17.498  26.703  31.508  1.00 74.33    -0.228 OA
HETATM   45  O4  FMM A  91      15.852  27.637  30.093  1.00 74.26    -0.228 OA
ENDBRANCH  41  42
ENDBRANCH  40  41
ENDBRANCH  37  40
ENDBRANCH  36  37
ENDBRANCH  34  36
ENDBRANCH   1  31
TORSDOF 11
ENDMDL
MODEL 5
REMARK VINA RESULT:      -9.8      4.168      8.892
REMARK  11 active torsions:
REMARK  status: ('A' for Active; 'I' for Inactive)
REMARK    1  A    between atoms: S2_3  and  C5_6 
REMARK    2  A    between atoms: C5_6  and  C6_7 
REMARK    3  A    between atoms: C6_7  and  N7_8 
REMARK    4  A    between atoms: N7_8  and  C8_11 
REMARK    5  A    between atoms: C8_11  and  C9_12 
REMARK    6  A    between atoms: C12_15  and  C14_17 
REMARK    7  A    between atoms: C21_26  and  N22_27 
REMARK    8  A    between atoms: N22_27  and  C23_29 
REMARK    9  A    between atoms: C26_32  and  O27_33 
REMARK   10  A    between atoms: O27_33  and  C28_34 
REMARK   11  A    between atoms: C28_34  and  C29_35 
ROOT
HETATM    1  C14 FMM A  91      16.386  32.865  37.930  1.00 38.14    -0.001 A 
HETATM    2  C15 FMM A  91      15.196  33.200  37.288  1.00 35.17     0.016 A 
HETATM    3  C16 FMM A  91      14.964  32.763  36.007  1.00 34.68     0.031 A 
HETATM    4  C17 FMM A  91      15.916  31.992  35.341  1.00 33.31     0.047 A 
HETATM    5  N18 FMM A  91      15.667  31.561  34.054  1.00 32.08    -0.352 N 
ATOM      6  H18 FMM A  91      14.788  31.807  33.596  1.00  0.00     0.166 HD
HETATM    7  C19 FMM A  91      16.599  30.797  33.381  1.00 32.80     0.182 A 
HETATM    8  N20 FMM A  91      17.790  30.460  33.989  1.00 33.06    -0.338 N 
ATOM      9  H20 FMM A  91      18.474  29.895  33.487  1.00  0.00     0.168 HD
HETATM   10  C21 FMM A  91      18.061  30.882  35.276  1.00 33.11     0.119 A 
HETATM   11  C39 FMM A  91      17.110  31.659  35.964  1.00 33.77     0.036 A 
HETATM   12  C40 FMM A  91      17.355  32.091  37.256  1.00 34.65     0.031 A 
ENDROOT
BRANCH  10  13
HETATM   13  N22 FMM A  91      19.264  30.540  35.893  1.00 33.98    -0.342 N 
ATOM     14  H22 FMM A  91      19.376  29.599  36.272  1.00  0.00     0.167 HD
BRANCH  13  15
HETATM   15  C23 FMM A  91      20.329  31.451  36.008  1.00 33.25     0.035 A 
HETATM   16  C24 FMM A  91      21.044  31.544  37.204  1.00 31.98     0.032 A 
HETATM   17  C25 FMM A  91      22.095  32.449  37.311  1.00 31.39     0.041 A 
HETATM   18  C26 FMM A  91      22.424  33.255  36.227  1.00 32.78     0.091 A 
HETATM   19  C36 FMM A  91      21.720  33.161  35.063  1.00 33.04     0.069 A 
HETATM   20 CL3  FMM A  91      22.149  34.159  33.765  1.00 34.74    -0.081 Cl
HETATM   21  C38 FMM A  91      20.677  32.271  34.938  1.00 32.28     0.056 A 
BRANCH  18  22
HETATM   22  O27 FMM A  91      23.496  34.183  36.300  1.00 32.72    -0.345 OA
BRANCH  22  23
HETATM   23  C28 FMM A  91      24.588  33.735  37.114  1.00 34.20     0.214 C 
BRANCH  23  24
HETATM   24  C29 FMM A  91      24.827  34.667  38.318  1.00 33.41    -0.031 A 
HETATM   25  C30 FMM A  91      26.082  35.195  38.528  1.00 32.49     0.009 A 
HETATM   26  C31 FMM A  91      26.307  36.035  39.599  1.00 32.79     0.004 A 
HETATM   27  C32 FMM A  91      25.277  36.351  40.459  1.00 32.60     0.042 A 
HETATM   28  C33 FMM A  91      24.023  35.828  40.254  1.00 33.26     0.117 A 
HETATM   29  C35 FMM A  91      23.788  34.986  39.190  1.00 33.74     0.051 A 
HETATM   30  F34 FMM A  91      23.044  36.136  41.074  1.00 33.03    -0.206 F 
ENDBRANCH  23  24
ENDBRANCH  22  23
ENDBRANCH  18  22
ENDBRANCH  13  15
ENDBRANCH  10  13
BRANCH   1  31
HETATM   31  C12 FMM A  91      16.621  33.303  39.309  1.00 40.70     0.086 A 
HETATM   32  C11 FMM A  91      17.807  33.850  39.730  1.00 42.97     0.040 A 
HETATM   33  C10 FMM A  91      17.680  34.158  40.978  1.00 44.99     0.037 A 
HETATM   34  C9  FMM A  91      16.433  33.809  41.355  1.00 47.90     0.079 A 
HETATM   35  O13 FMM A  91      15.644  33.217  40.305  1.00 44.76    -0.313 OA
BRANCH  34  36
HETATM   36  C8  FMM A  91      15.904  34.019  42.754  1.00 53.94     0.296 C 
BRANCH  36  37
HETATM   37  N7  FMM A  91      15.403  35.389  42.885  1.00 60.98    -0.069 N 
ATOM     38  H72 FMM A  91      14.607  35.568  42.273  1.00  0.00     0.277 HD
ATOM     39  H71 FMM A  91      16.048  36.074  42.491  1.00  0.00     0.277 HD
BRANCH  37  40
HETATM   40  C6  FMM A  91      15.092  35.667  44.295  1.00 65.50     0.247 C 
BRANCH  40  41
HETATM   41  C5  FMM A  91      15.814  36.947  44.731  1.00 70.88     0.167 C 
BRANCH  41  42
HETATM   42  S2  FMM A  91      14.683  38.359  44.592  1.00 75.43     0.142 S 
HETATM   43  C1  FMM A  91      13.100  37.794  44.029  1.00 73.29     0.161 C 
HETATM   44  O3  FMM A  91      14.535  38.991  45.886  1.00 74.33    -0.228 OA
HETATM   45  O4  FMM A  91      15.217  39.312  43.645  1.00 74.26    -0.228 OA
ENDBRANCH  41  42
ENDBRANCH  40  41
ENDBRANCH  37  40
ENDBRANCH  36  37
ENDBRANCH  34  36
ENDBRANCH   1  31
TORSDOF 11
ENDMDL
MODEL 6
REMARK VINA RESULT:      -9.7      5.224     10.949
REMARK  11 active torsions:
REMARK  status: ('A' for Active; 'I' for Inactive)
REMARK    1  A    between atoms: S2_3  and  C5_6 
REMARK    2  A    between atoms: C5_6  and  C6_7 
REMARK    3  A    between atoms: C6_7  and  N7_8 
REMARK    4  A    between atoms: N7_8  and  C8_11 
REMARK    5  A    between atoms: C8_11  and  C9_12 
REMARK    6  A    between atoms: C12_15  and  C14_17 
REMARK    7  A    between atoms: C21_26  and  N22_27 
REMARK    8  A    between atoms: N22_27  and  C23_29 
REMARK    9  A    between atoms: C26_32  and  O27_33 
REMARK   10  A    between atoms: O27_33  and  C28_34 
REMARK   11  A    between atoms: C28_34  and  C29_35 
ROOT
HETATM    1  C14 FMM A  91      16.119  33.082  38.116  1.00 38.14    -0.001 A 
HETATM    2  C15 FMM A  91      14.810  33.057  37.639  1.00 35.17     0.016 A 
HETATM    3  C16 FMM A  91      14.542  32.508  36.408  1.00 34.68     0.031 A 
HETATM    4  C17 FMM A  91      15.572  31.982  35.630  1.00 33.31     0.047 A 
HETATM    5  N18 FMM A  91      15.284  31.434  34.396  1.00 32.08    -0.352 N 
ATOM      6  H18 FMM A  91      14.321  31.415  34.061  1.00  0.00     0.166 HD
HETATM    7  C19 FMM A  91      16.293  30.910  33.614  1.00 32.80     0.182 A 
HETATM    8  N20 FMM A  91      17.599  30.931  34.057  1.00 33.06    -0.338 N 
ATOM      9  H20 FMM A  91      18.339  30.542  33.474  1.00  0.00     0.168 HD
HETATM   10  C21 FMM A  91      17.910  31.476  35.287  1.00 33.11     0.119 A 
HETATM   11  C39 FMM A  91      16.881  32.009  36.088  1.00 33.77     0.036 A 
HETATM   12  C40 FMM A  91      17.165  32.557  37.326  1.00 34.65     0.031 A 
ENDROOT
BRANCH  10  13
HETATM   13  N22 FMM A  91      19.229  31.497  35.738  1.00 33.98    -0.342 N 
ATOM     14  H22 FMM A  91      19.463  31.014  36.605  1.00  0.00     0.167 HD
BRANCH  13  15
HETATM   15  C23 FMM A  91      20.247  32.163  35.033  1.00 33.25     0.035 A 
HETATM   16  C24 FMM A  91      20.597  33.470  35.379  1.00 31.98     0.032 A 
HETATM   17  C25 FMM A  91      21.604  34.124  34.676  1.00 31.39     0.041 A 
HETATM   18  C26 FMM A  91      22.254  33.471  33.635  1.00 32.78     0.091 A 
HETATM   19  C36 FMM A  91      21.905  32.195  33.300  1.00 33.04     0.069 A 
HETATM   20 CL3  FMM A  91      22.717  31.434  32.026  1.00 34.74    -0.081 Cl
HETATM   21  C38 FMM A  91      20.911  31.533  33.985  1.00 32.28     0.056 A 
BRANCH  18  22
HETATM   22  O27 FMM A  91      23.291  34.106  32.902  1.00 32.72    -0.345 OA
BRANCH  22  23
HETATM   23  C28 FMM A  91      24.596  33.903  33.463  1.00 34.20     0.214 C 
BRANCH  23  24
HETATM   24  C29 FMM A  91      25.708  34.430  32.535  1.00 33.41    -0.031 A 
HETATM   25  C30 FMM A  91      25.975  33.769  31.356  1.00 32.49     0.009 A 
HETATM   26  C31 FMM A  91      26.965  34.234  30.514  1.00 32.79     0.004 A 
HETATM   27  C32 FMM A  91      27.685  35.361  30.849  1.00 32.60     0.042 A 
HETATM   28  C33 FMM A  91      27.422  36.025  32.023  1.00 33.26     0.117 A 
HETATM   29  C35 FMM A  91      26.438  35.566  32.872  1.00 33.74     0.051 A 
HETATM   30  F34 FMM A  91      28.108  37.100  32.335  1.00 33.03    -0.206 F 
ENDBRANCH  23  24
ENDBRANCH  22  23
ENDBRANCH  18  22
ENDBRANCH  13  15
ENDBRANCH  10  13
BRANCH   1  31
HETATM   31  C12 FMM A  91      16.403  33.638  39.442  1.00 40.70     0.086 A 
HETATM   32  C11 FMM A  91      17.671  33.928  39.877  1.00 42.97     0.040 A 
HETATM   33  C10 FMM A  91      17.578  34.431  41.063  1.00 44.99     0.037 A 
HETATM   34  C9  FMM A  91      16.269  34.457  41.388  1.00 47.90     0.079 A 
HETATM   35  O13 FMM A  91      15.398  33.937  40.365  1.00 44.76    -0.313 OA
BRANCH  34  36
HETATM   36  C8  FMM A  91      15.756  34.986  42.707  1.00 53.94     0.296 C 
BRANCH  36  37
HETATM   37  N7  FMM A  91      16.446  36.236  43.032  1.00 60.98    -0.069 N 
ATOM     38  H72 FMM A  91      16.025  37.041  42.567  1.00  0.00     0.277 HD
ATOM     39  H71 FMM A  91      17.371  36.288  42.606  1.00  0.00     0.277 HD
BRANCH  37  40
HETATM   40  C6  FMM A  91      16.497  36.405  44.492  1.00 65.50     0.247 C 
BRANCH  40  41
HETATM   41  C5  FMM A  91      15.076  36.604  45.030  1.00 70.88     0.167 C 
BRANCH  41  42
HETATM   42  S2  FMM A  91      14.586  38.339  44.824  1.00 75.43     0.142 S 
HETATM   43  C1  FMM A  91      15.949  39.390  45.244  1.00 73.29     0.161 C 
HETATM   44  O3  FMM A  91      14.204  38.575  43.448  1.00 74.33    -0.228 OA
HETATM   45  O4  FMM A  91      13.469  38.630  45.694  1.00 74.26    -0.228 OA
ENDBRANCH  41  42
ENDBRANCH  40  41
ENDBRANCH  37  40
ENDBRANCH  36  37
ENDBRANCH  34  36
ENDBRANCH   1  31
TORSDOF 11
ENDMDL
MODEL 7
REMARK VINA RESULT:      -9.7      4.908     10.415
REMARK  11 active torsions:
REMARK  status: ('A' for Active; 'I' for Inactive)
REMARK    1  A    between atoms: S2_3  and  C5_6 
REMARK    2  A    between atoms: C5_6  and  C6_7 
REMARK    3  A    between atoms: C6_7  and  N7_8 
REMARK    4  A    between atoms: N7_8  and  C8_11 
REMARK    5  A    between atoms: C8_11  and  C9_12 
REMARK    6  A    between atoms: C12_15  and  C14_17 
REMARK    7  A    between atoms: C21_26  and  N22_27 
REMARK    8  A    between atoms: N22_27  and  C23_29 
REMARK    9  A    between atoms: C26_32  and  O27_33 
REMARK   10  A    between atoms: O27_33  and  C28_34 
REMARK   11  A    between atoms: C28_34  and  C29_35 
ROOT
HETATM    1  C14 FMM A  91      16.669  32.599  37.427  1.00 38.14    -0.001 A 
HETATM    2  C15 FMM A  91      15.647  32.562  36.481  1.00 35.17     0.016 A 
HETATM    3  C16 FMM A  91      15.846  31.920  35.283  1.00 34.68     0.031 A 
HETATM    4  C17 FMM A  91      17.068  31.310  35.004  1.00 33.31     0.047 A 
HETATM    5  N18 FMM A  91      17.251  30.668  33.796  1.00 32.08    -0.352 N 
ATOM      6  H18 FMM A  91      16.493  30.643  33.114  1.00  0.00     0.166 HD
HETATM    7  C19 FMM A  91      18.456  30.060  33.505  1.00 32.80     0.182 A 
HETATM    8  N20 FMM A  91      19.488  30.090  34.419  1.00 33.06    -0.338 N 
ATOM      9  H20 FMM A  91      20.375  29.638  34.198  1.00  0.00     0.168 HD
HETATM   10  C21 FMM A  91      19.327  30.728  35.634  1.00 33.11     0.119 A 
HETATM   11  C39 FMM A  91      18.098  31.347  35.932  1.00 33.77     0.036 A 
HETATM   12  C40 FMM A  91      17.910  31.988  37.144  1.00 34.65     0.031 A 
ENDROOT
BRANCH  10  13
HETATM   13  N22 FMM A  91      20.370  30.757  36.560  1.00 33.98    -0.342 N 
ATOM     14  H22 FMM A  91      20.286  30.209  37.416  1.00  0.00     0.167 HD
BRANCH  13  15
HETATM   15  C23 FMM A  91      21.533  31.518  36.349  1.00 33.25     0.035 A 
HETATM   16  C24 FMM A  91      22.634  30.948  35.705  1.00 31.98     0.032 A 
HETATM   17  C25 FMM A  91      23.783  31.707  35.502  1.00 31.39     0.041 A 
HETATM   18  C26 FMM A  91      23.825  33.025  35.940  1.00 32.78     0.091 A 
HETATM   19  C36 FMM A  91      22.748  33.574  36.571  1.00 33.04     0.069 A 
HETATM   20 CL3  FMM A  91      22.837  35.181  37.092  1.00 34.74    -0.081 Cl
HETATM   21  C38 FMM A  91      21.602  32.839  36.781  1.00 32.28     0.056 A 
BRANCH  18  22
HETATM   22  O27 FMM A  91      24.978  33.829  35.742  1.00 32.72    -0.345 OA
BRANCH  22  23
HETATM   23  C28 FMM A  91      25.837  33.351  34.697  1.00 34.20     0.214 C 
BRANCH  23  24
HETATM   24  C29 FMM A  91      26.719  34.475  34.119  1.00 33.41    -0.031 A 
HETATM   25  C30 FMM A  91      26.390  35.037  32.904  1.00 32.49     0.009 A 
HETATM   26  C31 FMM A  91      27.168  36.048  32.378  1.00 32.79     0.004 A 
HETATM   27  C32 FMM A  91      28.273  36.500  33.068  1.00 32.60     0.042 A 
HETATM   28  C33 FMM A  91      28.605  35.945  34.280  1.00 33.26     0.117 A 
HETATM   29  C35 FMM A  91      27.836  34.932  34.812  1.00 33.74     0.051 A 
HETATM   30  F34 FMM A  91      29.656  36.382  34.935  1.00 33.03    -0.206 F 
ENDBRANCH  23  24
ENDBRANCH  22  23
ENDBRANCH  18  22
ENDBRANCH  13  15
ENDBRANCH  10  13
BRANCH   1  31
HETATM   31  C12 FMM A  91      16.446  33.256  38.718  1.00 40.70     0.086 A 
HETATM   32  C11 FMM A  91      15.199  33.583  39.187  1.00 42.97     0.040 A 
HETATM   33  C10 FMM A  91      15.342  34.112  40.357  1.00 44.99     0.037 A 
HETATM   34  C9  FMM A  91      16.662  34.131  40.632  1.00 47.90     0.079 A 
HETATM   35  O13 FMM A  91      17.490  33.584  39.587  1.00 44.76    -0.313 OA
BRANCH  34  36
HETATM   36  C8  FMM A  91      17.229  34.676  41.922  1.00 53.94     0.296 C 
BRANCH  36  37
HETATM   37  N7  FMM A  91      16.211  35.483  42.599  1.00 60.98    -0.069 N 
ATOM     38  H72 FMM A  91      15.449  35.745  41.974  1.00  0.00     0.277 HD
ATOM     39  H71 FMM A  91      16.547  36.420  42.821  1.00  0.00     0.277 HD
BRANCH  37  40
HETATM   40  C6  FMM A  91      15.731  34.770  43.792  1.00 65.50     0.247 C 
BRANCH  40  41
HETATM   41  C5  FMM A  91      15.605  35.759  44.957  1.00 70.88     0.167 C 
BRANCH  41  42
HETATM   42  S2  FMM A  91      14.873  37.308  44.360  1.00 75.43     0.142 S 
HETATM   43  C1  FMM A  91      14.026  38.113  45.692  1.00 73.29     0.161 C 
HETATM   44  O3  FMM A  91      15.918  38.177  43.861  1.00 74.33    -0.228 OA
HETATM   45  O4  FMM A  91      13.935  37.020  43.299  1.00 74.26    -0.228 OA
ENDBRANCH  41  42
ENDBRANCH  40  41
ENDBRANCH  37  40
ENDBRANCH  36  37
ENDBRANCH  34  36
ENDBRANCH   1  31
TORSDOF 11
ENDMDL
MODEL 8
REMARK VINA RESULT:      -9.5      4.627     11.241
REMARK  11 active torsions:
REMARK  status: ('A' for Active; 'I' for Inactive)
REMARK    1  A    between atoms: S2_3  and  C5_6 
REMARK    2  A    between atoms: C5_6  and  C6_7 
REMARK    3  A    between atoms: C6_7  and  N7_8 
REMARK    4  A    between atoms: N7_8  and  C8_11 
REMARK    5  A    between atoms: C8_11  and  C9_12 
REMARK    6  A    between atoms: C12_15  and  C14_17 
REMARK    7  A    between atoms: C21_26  and  N22_27 
REMARK    8  A    between atoms: N22_27  and  C23_29 
REMARK    9  A    between atoms: C26_32  and  O27_33 
REMARK   10  A    between atoms: O27_33  and  C28_34 
REMARK   11  A    between atoms: C28_34  and  C29_35 
ROOT
HETATM    1  C14 FMM A  91      20.121  33.889  38.895  1.00 38.14    -0.001 A 
HETATM    2  C15 FMM A  91      21.257  34.646  39.174  1.00 35.17     0.016 A 
HETATM    3  C16 FMM A  91      22.438  34.371  38.529  1.00 34.68     0.031 A 
HETATM    4  C17 FMM A  91      22.509  33.334  37.600  1.00 33.31     0.047 A 
HETATM    5  N18 FMM A  91      23.704  33.072  36.960  1.00 32.08    -0.352 N 
ATOM      6  H18 FMM A  91      24.527  33.637  37.169  1.00  0.00     0.166 HD
HETATM    7  C19 FMM A  91      23.791  32.048  36.038  1.00 32.80     0.182 A 
HETATM    8  N20 FMM A  91      22.685  31.277  35.749  1.00 33.06    -0.338 N 
ATOM      9  H20 FMM A  91      22.756  30.523  35.067  1.00  0.00     0.168 HD
HETATM   10  C21 FMM A  91      21.480  31.520  36.379  1.00 33.11     0.119 A 
HETATM   11  C39 FMM A  91      21.389  32.566  37.318  1.00 33.77     0.036 A 
HETATM   12  C40 FMM A  91      20.193  32.834  37.960  1.00 34.65     0.031 A 
ENDROOT
BRANCH  10  13
HETATM   13  N22 FMM A  91      20.360  30.742  36.087  1.00 33.98    -0.342 N 
ATOM     14  H22 FMM A  91      20.141  29.946  36.686  1.00  0.00     0.167 HD
BRANCH  13  15
HETATM   15  C23 FMM A  91      19.524  31.021  34.991  1.00 33.25     0.035 A 
HETATM   16  C24 FMM A  91      20.081  31.357  33.755  1.00 31.98     0.032 A 
HETATM   17  C25 FMM A  91      19.247  31.633  32.675  1.00 31.39     0.041 A 
HETATM   18  C26 FMM A  91      17.868  31.573  32.836  1.00 32.78     0.091 A 
HETATM   19  C36 FMM A  91      17.331  31.247  34.047  1.00 33.04     0.069 A 
HETATM   20 CL3  FMM A  91      15.647  31.185  34.205  1.00 34.74    -0.081 Cl
HETATM   21  C38 FMM A  91      18.140  30.970  35.126  1.00 32.28     0.056 A 
BRANCH  18  22
HETATM   22  O27 FMM A  91      16.989  31.841  31.754  1.00 32.72    -0.345 OA
BRANCH  22  23
HETATM   23  C28 FMM A  91      17.608  31.709  30.467  1.00 34.20     0.214 C 
BRANCH  23  24
HETATM   24  C29 FMM A  91      17.529  30.264  29.937  1.00 33.41    -0.031 A 
HETATM   25  C30 FMM A  91      18.513  29.798  29.093  1.00 32.49     0.009 A 
HETATM   26  C31 FMM A  91      18.457  28.504  28.616  1.00 32.79     0.004 A 
HETATM   27  C32 FMM A  91      17.419  27.675  28.985  1.00 32.60     0.042 A 
HETATM   28  C33 FMM A  91      16.436  28.134  29.828  1.00 33.26     0.117 A 
HETATM   29  C35 FMM A  91      16.481  29.425  30.307  1.00 33.74     0.051 A 
HETATM   30  F34 FMM A  91      15.452  27.339  30.181  1.00 33.03    -0.206 F 
ENDBRANCH  23  24
ENDBRANCH  22  23
ENDBRANCH  18  22
ENDBRANCH  13  15
ENDBRANCH  10  13
BRANCH   1  31
HETATM   31  C12 FMM A  91      18.853  34.202  39.558  1.00 40.70     0.086 A 
HETATM   32  C11 FMM A  91      17.660  34.300  38.887  1.00 42.97     0.040 A 
HETATM   33  C10 FMM A  91      16.736  34.551  39.754  1.00 44.99     0.037 A 
HETATM   34  C9  FMM A  91      17.327  34.619  40.965  1.00 47.90     0.079 A 
HETATM   35  O13 FMM A  91      18.753  34.406  40.937  1.00 44.76    -0.313 OA
BRANCH  34  36
HETATM   36  C8  FMM A  91      16.568  34.893  42.241  1.00 53.94     0.296 C 
BRANCH  36  37
HETATM   37  N7  FMM A  91      17.028  36.158  42.819  1.00 60.98    -0.069 N 
ATOM     38  H72 FMM A  91      16.419  36.938  42.574  1.00  0.00     0.277 HD
ATOM     39  H71 FMM A  91      17.883  36.495  42.377  1.00  0.00     0.277 HD
BRANCH  37  40
HETATM   40  C6  FMM A  91      17.179  36.008  44.274  1.00 65.50     0.247 C 
BRANCH  40  41
HETATM   41  C5  FMM A  91      15.796  36.056  44.934  1.00 70.88     0.167 C 
BRANCH  41  42
HETATM   42  S2  FMM A  91      14.923  37.557  44.407  1.00 75.43     0.142 S 
HETATM   43  C1  FMM A  91      13.969  38.191  45.759  1.00 73.29     0.161 C 
HETATM   44  O3  FMM A  91      15.884  38.554  43.988  1.00 74.33    -0.228 OA
HETATM   45  O4  FMM A  91      14.043  37.239  43.305  1.00 74.26    -0.228 OA
ENDBRANCH  41  42
ENDBRANCH  40  41
ENDBRANCH  37  40
ENDBRANCH  36  37
ENDBRANCH  34  36
ENDBRANCH   1  31
TORSDOF 11
ENDMDL
MODEL 9
REMARK VINA RESULT:      -9.4      2.384      3.052
REMARK  11 active torsions:
REMARK  status: ('A' for Active; 'I' for Inactive)
REMARK    1  A    between atoms: S2_3  and  C5_6 
REMARK    2  A    between atoms: C5_6  and  C6_7 
REMARK    3  A    between atoms: C6_7  and  N7_8 
REMARK    4  A    between atoms: N7_8  and  C8_11 
REMARK    5  A    between atoms: C8_11  and  C9_12 
REMARK    6  A    between atoms: C12_15  and  C14_17 
REMARK    7  A    between atoms: C21_26  and  N22_27 
REMARK    8  A    between atoms: N22_27  and  C23_29 
REMARK    9  A    between atoms: C26_32  and  O27_33 
REMARK   10  A    between atoms: O27_33  and  C28_34 
REMARK   11  A    between atoms: C28_34  and  C29_35 
ROOT
HETATM    1  C14 FMM A  91      17.333  31.483  35.083  1.00 38.14    -0.001 A 
HETATM    2  C15 FMM A  91      16.215  31.254  34.285  1.00 35.17     0.016 A 
HETATM    3  C16 FMM A  91      14.971  31.638  34.724  1.00 34.68     0.031 A 
HETATM    4  C17 FMM A  91      14.820  32.250  35.967  1.00 33.31     0.047 A 
HETATM    5  N18 FMM A  91      13.562  32.631  36.393  1.00 32.08    -0.352 N 
ATOM      6  H18 FMM A  91      12.752  32.463  35.796  1.00  0.00     0.166 HD
HETATM    7  C19 FMM A  91      13.396  33.238  37.621  1.00 32.80     0.182 A 
HETATM    8  N20 FMM A  91      14.485  33.468  38.435  1.00 33.06    -0.338 N 
ATOM      9  H20 FMM A  91      14.355  33.917  39.341  1.00  0.00     0.168 HD
HETATM   10  C21 FMM A  91      15.752  33.094  38.031  1.00 33.11     0.119 A 
HETATM   11  C39 FMM A  91      15.923  32.477  36.776  1.00 33.77     0.036 A 
HETATM   12  C40 FMM A  91      17.182  32.097  36.345  1.00 34.65     0.031 A 
ENDROOT
BRANCH  10  13
HETATM   13  N22 FMM A  91      16.854  33.328  38.852  1.00 33.98    -0.342 N 
ATOM     14  H22 FMM A  91      17.791  33.264  38.454  1.00  0.00     0.167 HD
BRANCH  13  15
HETATM   15  C23 FMM A  91      16.714  33.650  40.214  1.00 33.25     0.035 A 
HETATM   16  C24 FMM A  91      17.374  34.763  40.740  1.00 31.98     0.032 A 
HETATM   17  C25 FMM A  91      17.232  35.074  42.089  1.00 31.39     0.041 A 
HETATM   18  C26 FMM A  91      16.435  34.276  42.901  1.00 32.78     0.091 A 
HETATM   19  C36 FMM A  91      15.795  33.189  42.381  1.00 33.04     0.069 A 
HETATM   20 CL3  FMM A  91      14.835  32.240  43.401  1.00 34.74    -0.081 Cl
HETATM   21  C38 FMM A  91      15.924  32.866  41.049  1.00 32.28     0.056 A 
BRANCH  18  22
HETATM   22  O27 FMM A  91      16.262  34.571  44.280  1.00 32.72    -0.345 OA
BRANCH  22  23
HETATM   23  C28 FMM A  91      16.960  35.749  44.706  1.00 34.20     0.214 C 
BRANCH  23  24
HETATM   24  C29 FMM A  91      16.037  36.983  44.738  1.00 33.41    -0.031 A 
HETATM   25  C30 FMM A  91      16.557  38.207  45.097  1.00 32.49     0.009 A 
HETATM   26  C31 FMM A  91      15.742  39.321  45.125  1.00 32.79     0.004 A 
HETATM   27  C32 FMM A  91      14.409  39.211  44.791  1.00 32.60     0.042 A 
HETATM   28  C33 FMM A  91      13.885  37.992  44.432  1.00 33.26     0.117 A 
HETATM   29  C35 FMM A  91      14.690  36.874  44.404  1.00 33.74     0.051 A 
HETATM   30  F34 FMM A  91      12.616  37.894  44.111  1.00 33.03    -0.206 F 
ENDBRANCH  23  24
ENDBRANCH  22  23
ENDBRANCH  18  22
ENDBRANCH  13  15
ENDBRANCH  10  13
BRANCH   1  31
HETATM   31  C12 FMM A  91      18.664  31.104  34.602  1.00 40.70     0.086 A 
HETATM   32  C11 FMM A  91      19.701  30.780  35.441  1.00 42.97     0.040 A 
HETATM   33  C10 FMM A  91      20.717  30.462  34.711  1.00 44.99     0.037 A 
HETATM   34  C9  FMM A  91      20.343  30.586  33.422  1.00 47.90     0.079 A 
HETATM   35  O13 FMM A  91      18.980  31.021  33.243  1.00 44.76    -0.313 OA
BRANCH  34  36
HETATM   36  C8  FMM A  91      21.265  30.295  32.262  1.00 53.94     0.296 C 
BRANCH  36  37
HETATM   37  N7  FMM A  91      22.481  29.644  32.757  1.00 60.98    -0.069 N 
ATOM     38  H72 FMM A  91      22.581  29.735  33.768  1.00  0.00     0.277 HD
ATOM     39  H71 FMM A  91      23.325  30.145  32.480  1.00  0.00     0.277 HD
BRANCH  37  40
HETATM   40  C6  FMM A  91      22.500  28.240  32.321  1.00 65.50     0.247 C 
BRANCH  40  41
HETATM   41  C5  FMM A  91      23.798  27.579  32.799  1.00 70.88     0.167 C 
BRANCH  41  42
HETATM   42  S2  FMM A  91      24.821  28.805  33.662  1.00 75.43     0.142 S 
HETATM   43  C1  FMM A  91      26.350  28.057  34.154  1.00 73.29     0.161 C 
HETATM   44  O3  FMM A  91      25.093  29.918  32.778  1.00 74.33    -0.228 OA
HETATM   45  O4  FMM A  91      24.119  29.277  34.834  1.00 74.26    -0.228 OA
ENDBRANCH  41  42
ENDBRANCH  40  41
ENDBRANCH  37  40
ENDBRANCH  36  37
ENDBRANCH  34  36
ENDBRANCH   1  31
TORSDOF 11
ENDMDL
