MODEL 1
REMARK VINA RESULT:     -10.8      0.000      0.000
REMARK  7 active torsions:
REMARK  status: ('A' for Active; 'I' for Inactive)
REMARK    1  A    between atoms: C_1  and  N_10 
REMARK    2  A    between atoms: C_6  and  N_26 
REMARK       I    between atoms: C_9  and  N_10 
REMARK    3  A    between atoms: C_9  and  C_12 
REMARK    4  A    between atoms: C_15  and  C_18 
REMARK    5  A    between atoms: C_18  and  N_19 
REMARK    6  A    between atoms: N_26  and  C_28 
REMARK    7  A    between atoms: C_33  and  C_36 
ROOT
ATOM      1  C   LIG     1      18.857  33.395  38.233  0.00  0.00     0.037 A 
ATOM      2  C   LIG     1      18.453  32.475  37.246  0.00  0.00     0.030 A 
ATOM      3  C   LIG     1      17.101  32.162  37.055  0.00  0.00     0.011 A 
ATOM      4  C   LIG     1      16.084  32.765  37.833  0.00  0.00    -0.035 A 
ATOM      5  C   LIG     1      14.706  32.340  37.452  0.00  0.00     0.050 C 
ATOM      6  C   LIG     1      16.464  33.706  38.839  0.00  0.00     0.057 A 
ATOM      7  C   LIG     1      17.840  34.006  39.006  0.00  0.00     0.060 A 
ENDROOT
BRANCH   1   8
ATOM      8  N   LIG     1      20.177  33.598  38.314  0.00  0.00    -0.323 N 
ATOM      9  C   LIG     1      20.941  34.351  39.058  0.00  0.00     0.256 C 
ATOM     10  O   LIG     1      20.446  34.898  40.037  0.00  0.00    -0.267 OA
ATOM     11  H   LIG     1      20.654  33.069  37.710  0.00  0.00     0.169 HD
BRANCH   9  12
ATOM     12  C   LIG     1      22.317  34.510  38.811  0.00  0.00     0.032 A 
ATOM     13  C   LIG     1      22.941  34.073  37.612  0.00  0.00     0.017 A 
ATOM     14  C   LIG     1      24.328  34.190  37.402  0.00  0.00     0.010 A 
ATOM     15  C   LIG     1      25.165  34.762  38.385  0.00  0.00    -0.030 A 
ATOM     16  C   LIG     1      24.558  35.253  39.560  0.00  0.00     0.010 A 
ATOM     17  C   LIG     1      23.174  35.120  39.766  0.00  0.00     0.017 A 
BRANCH  15  18
ATOM     18  C   LIG     1      26.642  34.804  38.230  0.00  0.00     0.311 C 
BRANCH  18  19
ATOM     19  N   LIG     1      27.219  33.856  37.222  0.00  0.00     0.096 N 
ATOM     20  C   LIG     1      27.867  34.561  36.073  0.00  0.00     0.303 C 
ATOM     21  C   LIG     1      28.579  33.627  35.065  0.00  0.00     0.302 C 
ATOM     22  N   LIG     1      29.502  32.703  35.781  0.00  0.00     0.087 N 
ATOM     23  C   LIG     1      30.428  31.953  34.892  0.00  0.00     0.310 C 
ATOM     24  C   LIG     1      28.791  31.875  36.796  0.00  0.00     0.302 C 
ATOM     25  C   LIG     1      28.063  32.776  37.827  0.00  0.00     0.303 C 
ENDBRANCH  18  19
ENDBRANCH  15  18
ENDBRANCH   9  12
ENDBRANCH   1   8
BRANCH   6  26
ATOM     26  N   LIG     1      15.670  34.402  39.661  0.00  0.00    -0.191 N 
ATOM     27  H   LIG     1      15.147  35.071  39.267  0.00  0.00     0.184 HD
BRANCH  26  28
ATOM     28  C   LIG     1      15.508  34.262  40.955  0.00  0.00     0.683 A 
ATOM     29  N   LIG     1      15.351  35.324  41.786  0.00  0.00    -0.191 N 
ATOM     30  C   LIG     1      15.291  35.237  43.147  0.00  0.00     0.062 A 
ATOM     31  HN  LIG     1      15.272  36.249  41.365  1.00  0.00     0.184 HD
ATOM     32  C   LIG     1      15.441  33.936  43.695  0.00  0.00     0.048 A 
ATOM     33  C   LIG     1      15.569  32.832  42.833  0.00  0.00     0.108 A 
ATOM     34  N   LIG     1      15.587  33.021  41.492  0.00  0.00    -0.202 N 
ATOM     35  HN  LIG     1      15.662  32.213  40.874  1.00  0.00     0.183 HD
BRANCH  30  36
ATOM     36  C   LIG     1      15.094  36.431  43.912  0.00  0.00     0.007 A 
ATOM     37  C   LIG     1      13.795  36.917  44.224  0.00  0.00     0.016 A 
ATOM     38  C   LIG     1      13.592  38.086  44.981  0.00  0.00     0.018 A 
ATOM     39  C   LIG     1      14.714  38.791  45.440  0.00  0.00     0.087 A 
ATOM     40  N   LIG     1      15.953  38.330  45.150  0.00  0.00    -0.374 N 
ATOM     41  C   LIG     1      16.167  37.205  44.424  0.00  0.00     0.101 A 
ATOM     42  HN  LIG     1      16.760  38.852  45.491  1.00  0.00     0.164 HD
ENDBRANCH  30  36
ENDBRANCH  26  28
ENDBRANCH   6  26
TORSDOF 7
ENDMDL
MODEL 2
REMARK VINA RESULT:     -10.7      5.598     12.480
REMARK  7 active torsions:
REMARK  status: ('A' for Active; 'I' for Inactive)
REMARK    1  A    between atoms: C_1  and  N_10 
REMARK    2  A    between atoms: C_6  and  N_26 
REMARK       I    between atoms: C_9  and  N_10 
REMARK    3  A    between atoms: C_9  and  C_12 
REMARK    4  A    between atoms: C_15  and  C_18 
REMARK    5  A    between atoms: C_18  and  N_19 
REMARK    6  A    between atoms: N_26  and  C_28 
REMARK    7  A    between atoms: C_33  and  C_36 
ROOT
ATOM      1  C   LIG     1      18.863  31.918  36.263  0.00  0.00     0.037 A 
ATOM      2  C   LIG     1      20.004  31.097  36.352  0.00  0.00     0.030 A 
ATOM      3  C   LIG     1      20.624  30.590  35.203  0.00  0.00     0.011 A 
ATOM      4  C   LIG     1      20.143  30.892  33.906  0.00  0.00    -0.035 A 
ATOM      5  C   LIG     1      20.961  30.298  32.810  0.00  0.00     0.050 C 
ATOM      6  C   LIG     1      18.988  31.726  33.786  0.00  0.00     0.057 A 
ATOM      7  C   LIG     1      18.384  32.228  34.967  0.00  0.00     0.060 A 
ENDROOT
BRANCH   1   8
ATOM      8  N   LIG     1      18.367  32.328  37.436  0.00  0.00    -0.323 N 
ATOM      9  C   LIG     1      17.246  32.886  37.808  0.00  0.00     0.256 C 
ATOM     10  O   LIG     1      16.319  32.926  37.006  0.00  0.00    -0.267 OA
ATOM     11  H   LIG     1      18.951  32.163  38.145  0.00  0.00     0.169 HD
BRANCH   9  12
ATOM     12  C   LIG     1      17.046  33.388  39.107  0.00  0.00     0.032 A 
ATOM     13  C   LIG     1      18.068  34.043  39.846  0.00  0.00     0.017 A 
ATOM     14  C   LIG     1      17.869  34.491  41.166  0.00  0.00     0.010 A 
ATOM     15  C   LIG     1      16.627  34.313  41.813  0.00  0.00    -0.030 A 
ATOM     16  C   LIG     1      15.581  33.715  41.078  0.00  0.00     0.010 A 
ATOM     17  C   LIG     1      15.793  33.259  39.765  0.00  0.00     0.017 A 
BRANCH  15  18
ATOM     18  C   LIG     1      16.422  34.685  43.237  0.00  0.00     0.311 C 
BRANCH  18  19
ATOM     19  N   LIG     1      15.850  36.051  43.478  0.00  0.00     0.096 N 
ATOM     20  C   LIG     1      14.379  36.021  43.745  0.00  0.00     0.303 C 
ATOM     21  C   LIG     1      13.766  37.392  44.115  0.00  0.00     0.302 C 
ATOM     22  N   LIG     1      14.547  38.029  45.211  0.00  0.00     0.087 N 
ATOM     23  C   LIG     1      13.890  39.215  45.820  0.00  0.00     0.310 C 
ATOM     24  C   LIG     1      15.979  38.218  44.842  0.00  0.00     0.302 C 
ATOM     25  C   LIG     1      16.632  36.864  44.464  0.00  0.00     0.303 C 
ENDBRANCH  18  19
ENDBRANCH  15  18
ENDBRANCH   9  12
ENDBRANCH   1   8
BRANCH   6  26
ATOM     26  N   LIG     1      18.389  32.149  32.667  0.00  0.00    -0.191 N 
ATOM     27  H   LIG     1      18.498  33.054  32.453  0.00  0.00     0.184 HD
BRANCH  26  28
ATOM     28  C   LIG     1      17.676  31.458  31.809  0.00  0.00     0.683 A 
ATOM     29  N   LIG     1      17.568  31.812  30.503  0.00  0.00    -0.191 N 
ATOM     30  C   LIG     1      16.754  31.193  29.601  0.00  0.00     0.062 A 
ATOM     31  HN  LIG     1      18.134  32.594  30.174  1.00  0.00     0.184 HD
ATOM     32  C   LIG     1      15.955  30.134  30.106  0.00  0.00     0.048 A 
ATOM     33  C   LIG     1      16.092  29.745  31.451  0.00  0.00     0.108 A 
ATOM     34  N   LIG     1      16.953  30.405  32.261  0.00  0.00    -0.202 N 
ATOM     35  HN  LIG     1      17.060  30.104  33.229  1.00  0.00     0.183 HD
BRANCH  30  36
ATOM     36  C   LIG     1      16.751  31.645  28.242  0.00  0.00     0.007 A 
ATOM     37  C   LIG     1      17.085  30.782  27.163  0.00  0.00     0.016 A 
ATOM     38  C   LIG     1      17.079  31.215  25.824  0.00  0.00     0.018 A 
ATOM     39  C   LIG     1      16.730  32.546  25.552  0.00  0.00     0.087 A 
ATOM     40  N   LIG     1      16.408  33.371  26.574  0.00  0.00    -0.374 N 
ATOM     41  C   LIG     1      16.406  32.970  27.869  0.00  0.00     0.101 A 
ATOM     42  HN  LIG     1      16.155  34.336  26.362  1.00  0.00     0.164 HD
ENDBRANCH  30  36
ENDBRANCH  26  28
ENDBRANCH   6  26
TORSDOF 7
ENDMDL
MODEL 3
REMARK VINA RESULT:     -10.6      2.852     10.881
REMARK  7 active torsions:
REMARK  status: ('A' for Active; 'I' for Inactive)
REMARK    1  A    between atoms: C_1  and  N_10 
REMARK    2  A    between atoms: C_6  and  N_26 
REMARK       I    between atoms: C_9  and  N_10 
REMARK    3  A    between atoms: C_9  and  C_12 
REMARK    4  A    between atoms: C_15  and  C_18 
REMARK    5  A    between atoms: C_18  and  N_19 
REMARK    6  A    between atoms: N_26  and  C_28 
REMARK    7  A    between atoms: C_33  and  C_36 
ROOT
ATOM      1  C   LIG     1      17.425  31.728  36.136  0.00  0.00     0.037 A 
ATOM      2  C   LIG     1      16.317  31.470  35.305  0.00  0.00     0.030 A 
ATOM      3  C   LIG     1      16.483  30.941  34.018  0.00  0.00     0.011 A 
ATOM      4  C   LIG     1      17.765  30.631  33.504  0.00  0.00    -0.035 A 
ATOM      5  C   LIG     1      17.734  30.036  32.137  0.00  0.00     0.050 C 
ATOM      6  C   LIG     1      18.906  30.880  34.327  0.00  0.00     0.057 A 
ATOM      7  C   LIG     1      18.707  31.411  35.627  0.00  0.00     0.060 A 
ENDROOT
BRANCH   1   8
ATOM      8  N   LIG     1      17.126  32.238  37.336  0.00  0.00    -0.323 N 
ATOM      9  C   LIG     1      17.328  33.392  37.913  0.00  0.00     0.256 C 
ATOM     10  O   LIG     1      17.717  34.329  37.225  0.00  0.00    -0.267 OA
ATOM     11  H   LIG     1      16.656  31.635  37.871  0.00  0.00     0.169 HD
BRANCH   9  12
ATOM     12  C   LIG     1      17.063  33.611  39.278  0.00  0.00     0.032 A 
ATOM     13  C   LIG     1      15.866  33.181  39.910  0.00  0.00     0.017 A 
ATOM     14  C   LIG     1      15.591  33.456  41.264  0.00  0.00     0.010 A 
ATOM     15  C   LIG     1      16.511  34.173  42.059  0.00  0.00    -0.030 A 
ATOM     16  C   LIG     1      17.731  34.562  41.466  0.00  0.00     0.010 A 
ATOM     17  C   LIG     1      17.990  34.295  40.110  0.00  0.00     0.017 A 
BRANCH  15  18
ATOM     18  C   LIG     1      16.201  34.564  43.459  0.00  0.00     0.311 C 
BRANCH  18  19
ATOM     19  N   LIG     1      15.620  35.935  43.639  0.00  0.00     0.096 N 
ATOM     20  C   LIG     1      14.181  35.903  44.044  0.00  0.00     0.303 C 
ATOM     21  C   LIG     1      13.570  37.290  44.356  0.00  0.00     0.302 C 
ATOM     22  N   LIG     1      14.433  38.030  45.318  0.00  0.00     0.087 N 
ATOM     23  C   LIG     1      13.806  39.252  45.886  0.00  0.00     0.310 C 
ATOM     24  C   LIG     1      15.820  38.212  44.802  0.00  0.00     0.302 C 
ATOM     25  C   LIG     1      16.468  36.841  44.477  0.00  0.00     0.303 C 
ENDBRANCH  18  19
ENDBRANCH  15  18
ENDBRANCH   9  12
ENDBRANCH   1   8
BRANCH   6  26
ATOM     26  N   LIG     1      20.193  30.640  34.048  0.00  0.00    -0.191 N 
ATOM     27  H   LIG     1      20.433  29.743  33.927  0.00  0.00     0.184 HD
BRANCH  26  28
ATOM     28  C   LIG     1      21.172  31.500  33.901  0.00  0.00     0.683 A 
ATOM     29  N   LIG     1      21.669  32.220  34.939  0.00  0.00    -0.191 N 
ATOM     30  C   LIG     1      22.607  33.203  34.817  0.00  0.00     0.062 A 
ATOM     31  HN  LIG     1      21.316  32.012  35.873  1.00  0.00     0.184 HD
ATOM     32  C   LIG     1      23.044  33.488  33.497  0.00  0.00     0.048 A 
ATOM     33  C   LIG     1      22.556  32.719  32.426  0.00  0.00     0.108 A 
ATOM     34  N   LIG     1      21.646  31.742  32.655  0.00  0.00    -0.202 N 
ATOM     35  HN  LIG     1      21.312  31.177  31.874  1.00  0.00     0.183 HD
BRANCH  30  36
ATOM     36  C   LIG     1      23.070  33.872  35.996  0.00  0.00     0.007 A 
ATOM     37  C   LIG     1      24.371  33.649  36.523  0.00  0.00     0.016 A 
ATOM     38  C   LIG     1      24.838  34.306  37.676  0.00  0.00     0.018 A 
ATOM     39  C   LIG     1      23.984  35.211  38.324  0.00  0.00     0.087 A 
ATOM     40  N   LIG     1      22.746  35.431  37.824  0.00  0.00    -0.374 N 
ATOM     41  C   LIG     1      22.282  34.808  36.713  0.00  0.00     0.101 A 
ATOM     42  HN  LIG     1      22.136  36.093  38.305  1.00  0.00     0.164 HD
ENDBRANCH  30  36
ENDBRANCH  26  28
ENDBRANCH   6  26
TORSDOF 7
ENDMDL
MODEL 4
REMARK VINA RESULT:     -10.5      1.164      1.732
REMARK  7 active torsions:
REMARK  status: ('A' for Active; 'I' for Inactive)
REMARK    1  A    between atoms: C_1  and  N_10 
REMARK    2  A    between atoms: C_6  and  N_26 
REMARK       I    between atoms: C_9  and  N_10 
REMARK    3  A    between atoms: C_9  and  C_12 
REMARK    4  A    between atoms: C_15  and  C_18 
REMARK    5  A    between atoms: C_18  and  N_19 
REMARK    6  A    between atoms: N_26  and  C_28 
REMARK    7  A    between atoms: C_33  and  C_36 
ROOT
ATOM      1  C   LIG     1      18.542  33.112  37.850  0.00  0.00     0.037 A 
ATOM      2  C   LIG     1      17.920  32.242  36.933  0.00  0.00     0.030 A 
ATOM      3  C   LIG     1      16.526  32.105  36.896  0.00  0.00     0.011 A 
ATOM      4  C   LIG     1      15.685  32.841  37.764  0.00  0.00    -0.035 A 
ATOM      5  C   LIG     1      14.231  32.593  37.543  0.00  0.00     0.050 C 
ATOM      6  C   LIG     1      16.290  33.734  38.702  0.00  0.00     0.057 A 
ATOM      7  C   LIG     1      17.702  33.856  38.714  0.00  0.00     0.060 A 
ENDROOT
BRANCH   1   8
ATOM      8  N   LIG     1      19.878  33.143  37.784  0.00  0.00    -0.323 N 
ATOM      9  C   LIG     1      20.813  33.732  38.481  0.00  0.00     0.256 C 
ATOM     10  O   LIG     1      20.506  34.253  39.548  0.00  0.00    -0.267 OA
ATOM     11  H   LIG     1      20.211  32.613  37.092  0.00  0.00     0.169 HD
BRANCH   9  12
ATOM     12  C   LIG     1      22.161  33.742  38.080  0.00  0.00     0.032 A 
ATOM     13  C   LIG     1      23.119  34.645  38.614  0.00  0.00     0.017 A 
ATOM     14  C   LIG     1      24.453  34.679  38.163  0.00  0.00     0.010 A 
ATOM     15  C   LIG     1      24.900  33.798  37.155  0.00  0.00    -0.030 A 
ATOM     16  C   LIG     1      23.979  32.855  36.649  0.00  0.00     0.010 A 
ATOM     17  C   LIG     1      22.646  32.838  37.096  0.00  0.00     0.017 A 
BRANCH  15  18
ATOM     18  C   LIG     1      26.272  33.881  36.591  0.00  0.00     0.311 C 
BRANCH  18  19
ATOM     19  N   LIG     1      27.384  33.966  37.594  0.00  0.00     0.096 N 
ATOM     20  C   LIG     1      28.116  32.672  37.754  0.00  0.00     0.303 C 
ATOM     21  C   LIG     1      29.345  32.741  38.691  0.00  0.00     0.302 C 
ATOM     22  N   LIG     1      30.232  33.870  38.296  0.00  0.00     0.087 N 
ATOM     23  C   LIG     1      31.564  33.860  38.956  0.00  0.00     0.310 C 
ATOM     24  C   LIG     1      29.520  35.179  38.327  0.00  0.00     0.302 C 
ATOM     25  C   LIG     1      28.279  35.151  37.398  0.00  0.00     0.303 C 
ENDBRANCH  18  19
ENDBRANCH  15  18
ENDBRANCH   9  12
ENDBRANCH   1   8
BRANCH   6  26
ATOM     26  N   LIG     1      15.684  34.534  39.588  0.00  0.00    -0.191 N 
ATOM     27  H   LIG     1      15.304  35.319  39.248  0.00  0.00     0.184 HD
BRANCH  26  28
ATOM     28  C   LIG     1      15.534  34.359  40.879  0.00  0.00     0.683 A 
ATOM     29  N   LIG     1      15.363  35.397  41.738  0.00  0.00    -0.191 N 
ATOM     30  C   LIG     1      15.315  35.274  43.096  0.00  0.00     0.062 A 
ATOM     31  HN  LIG     1      15.265  36.331  41.341  1.00  0.00     0.184 HD
ATOM     32  C   LIG     1      15.492  33.963  43.611  0.00  0.00     0.048 A 
ATOM     33  C   LIG     1      15.634  32.884  42.720  0.00  0.00     0.108 A 
ATOM     34  N   LIG     1      15.640  33.106  41.384  0.00  0.00    -0.202 N 
ATOM     35  HN  LIG     1      15.725  32.315  40.746  1.00  0.00     0.183 HD
BRANCH  30  36
ATOM     36  C   LIG     1      15.102  36.445  43.892  0.00  0.00     0.007 A 
ATOM     37  C   LIG     1      13.797  36.930  44.180  0.00  0.00     0.016 A 
ATOM     38  C   LIG     1      13.578  38.076  44.967  0.00  0.00     0.018 A 
ATOM     39  C   LIG     1      14.690  38.759  45.482  0.00  0.00     0.087 A 
ATOM     40  N   LIG     1      15.934  38.300  45.214  0.00  0.00    -0.374 N 
ATOM     41  C   LIG     1      16.163  37.197  44.460  0.00  0.00     0.101 A 
ATOM     42  HN  LIG     1      16.733  38.806  45.595  1.00  0.00     0.164 HD
ENDBRANCH  30  36
ENDBRANCH  26  28
ENDBRANCH   6  26
TORSDOF 7
ENDMDL
MODEL 5
REMARK VINA RESULT:     -10.4      5.388      7.967
REMARK  7 active torsions:
REMARK  status: ('A' for Active; 'I' for Inactive)
REMARK    1  A    between atoms: C_1  and  N_10 
REMARK    2  A    between atoms: C_6  and  N_26 
REMARK       I    between atoms: C_9  and  N_10 
REMARK    3  A    between atoms: C_9  and  C_12 
REMARK    4  A    between atoms: C_15  and  C_18 
REMARK    5  A    between atoms: C_18  and  N_19 
REMARK    6  A    between atoms: N_26  and  C_28 
REMARK    7  A    between atoms: C_33  and  C_36 
ROOT
ATOM      1  C   LIG     1      17.549  33.202  37.826  0.00  0.00     0.037 A 
ATOM      2  C   LIG     1      18.820  33.613  38.271  0.00  0.00     0.030 A 
ATOM      3  C   LIG     1      18.987  34.231  39.518  0.00  0.00     0.011 A 
ATOM      4  C   LIG     1      17.892  34.454  40.387  0.00  0.00    -0.035 A 
ATOM      5  C   LIG     1      18.275  35.080  41.686  0.00  0.00     0.050 C 
ATOM      6  C   LIG     1      16.591  34.042  39.962  0.00  0.00     0.057 A 
ATOM      7  C   LIG     1      16.454  33.417  38.697  0.00  0.00     0.060 A 
ENDROOT
BRANCH   1   8
ATOM      8  N   LIG     1      17.530  32.633  36.615  0.00  0.00    -0.323 N 
ATOM      9  C   LIG     1      16.624  32.000  35.919  0.00  0.00     0.256 C 
ATOM     10  O   LIG     1      15.461  32.034  36.304  0.00  0.00    -0.267 OA
ATOM     11  H   LIG     1      18.344  32.724  36.168  0.00  0.00     0.169 HD
BRANCH   9  12
ATOM     12  C   LIG     1      16.926  31.331  34.718  0.00  0.00     0.032 A 
ATOM     13  C   LIG     1      18.221  30.832  34.416  0.00  0.00     0.017 A 
ATOM     14  C   LIG     1      18.520  30.214  33.187  0.00  0.00     0.010 A 
ATOM     15  C   LIG     1      17.529  30.056  32.194  0.00  0.00    -0.030 A 
ATOM     16  C   LIG     1      16.222  30.495  32.494  0.00  0.00     0.010 A 
ATOM     17  C   LIG     1      15.936  31.123  33.719  0.00  0.00     0.017 A 
BRANCH  15  18
ATOM     18  C   LIG     1      17.842  29.500  30.852  0.00  0.00     0.311 C 
BRANCH  18  19
ATOM     19  N   LIG     1      17.143  30.153  29.698  0.00  0.00     0.096 N 
ATOM     20  C   LIG     1      17.210  31.645  29.752  0.00  0.00     0.303 C 
ATOM     21  C   LIG     1      16.604  32.361  28.521  0.00  0.00     0.302 C 
ATOM     22  N   LIG     1      17.169  31.795  27.265  0.00  0.00     0.087 N 
ATOM     23  C   LIG     1      16.858  32.585  26.044  0.00  0.00     0.310 C 
ATOM     24  C   LIG     1      16.920  30.329  27.149  0.00  0.00     0.302 C 
ATOM     25  C   LIG     1      17.514  29.574  28.367  0.00  0.00     0.303 C 
ENDBRANCH  18  19
ENDBRANCH  15  18
ENDBRANCH   9  12
ENDBRANCH   1   8
BRANCH   6  26
ATOM     26  N   LIG     1      15.436  34.136  40.631  0.00  0.00    -0.191 N 
ATOM     27  H   LIG     1      14.653  34.104  40.119  0.00  0.00     0.184 HD
BRANCH  26  28
ATOM     28  C   LIG     1      15.248  34.250  41.925  0.00  0.00     0.683 A 
ATOM     29  N   LIG     1      15.091  35.453  42.533  0.00  0.00    -0.191 N 
ATOM     30  C   LIG     1      15.004  35.630  43.883  0.00  0.00     0.062 A 
ATOM     31  HN  LIG     1      15.034  36.281  41.941  1.00  0.00     0.184 HD
ATOM     32  C   LIG     1      15.124  34.458  44.675  0.00  0.00     0.048 A 
ATOM     33  C   LIG     1      15.252  33.207  44.044  0.00  0.00     0.108 A 
ATOM     34  N   LIG     1      15.298  33.134  42.692  0.00  0.00    -0.202 N 
ATOM     35  HN  LIG     1      15.372  32.221  42.243  1.00  0.00     0.183 HD
BRANCH  30  36
ATOM     36  C   LIG     1      14.811  36.951  44.400  0.00  0.00     0.007 A 
ATOM     37  C   LIG     1      15.903  37.823  44.659  0.00  0.00     0.016 A 
ATOM     38  C   LIG     1      15.722  39.125  45.161  0.00  0.00     0.018 A 
ATOM     39  C   LIG     1      14.417  39.572  45.413  0.00  0.00     0.087 A 
ATOM     40  N   LIG     1      13.373  38.748  45.165  0.00  0.00    -0.374 N 
ATOM     41  C   LIG     1      13.529  37.491  44.680  0.00  0.00     0.101 A 
ATOM     42  HN  LIG     1      12.429  39.086  45.352  1.00  0.00     0.164 HD
ENDBRANCH  30  36
ENDBRANCH  26  28
ENDBRANCH   6  26
TORSDOF 7
ENDMDL
MODEL 6
REMARK VINA RESULT:     -10.1      5.358     12.392
REMARK  7 active torsions:
REMARK  status: ('A' for Active; 'I' for Inactive)
REMARK    1  A    between atoms: C_1  and  N_10 
REMARK    2  A    between atoms: C_6  and  N_26 
REMARK       I    between atoms: C_9  and  N_10 
REMARK    3  A    between atoms: C_9  and  C_12 
REMARK    4  A    between atoms: C_15  and  C_18 
REMARK    5  A    between atoms: C_18  and  N_19 
REMARK    6  A    between atoms: N_26  and  C_28 
REMARK    7  A    between atoms: C_33  and  C_36 
ROOT
ATOM      1  C   LIG     1      19.353  32.236  36.227  0.00  0.00     0.037 A 
ATOM      2  C   LIG     1      20.394  33.098  35.829  0.00  0.00     0.030 A 
ATOM      3  C   LIG     1      21.106  32.875  34.643  0.00  0.00     0.011 A 
ATOM      4  C   LIG     1      20.803  31.788  33.788  0.00  0.00    -0.035 A 
ATOM      5  C   LIG     1      21.638  31.745  32.554  0.00  0.00     0.050 C 
ATOM      6  C   LIG     1      19.748  30.900  34.166  0.00  0.00     0.057 A 
ATOM      7  C   LIG     1      19.043  31.153  35.370  0.00  0.00     0.060 A 
ENDROOT
BRANCH   1   8
ATOM      8  N   LIG     1      18.761  32.559  37.382  0.00  0.00    -0.323 N 
ATOM      9  C   LIG     1      17.565  32.968  37.712  0.00  0.00     0.256 C 
ATOM     10  O   LIG     1      16.676  32.910  36.870  0.00  0.00    -0.267 OA
ATOM     11  H   LIG     1      19.330  32.452  38.114  0.00  0.00     0.169 HD
BRANCH   9  12
ATOM     12  C   LIG     1      17.251  33.416  39.008  0.00  0.00     0.032 A 
ATOM     13  C   LIG     1      18.203  34.033  39.863  0.00  0.00     0.017 A 
ATOM     14  C   LIG     1      17.886  34.426  41.178  0.00  0.00     0.010 A 
ATOM     15  C   LIG     1      16.591  34.229  41.702  0.00  0.00    -0.030 A 
ATOM     16  C   LIG     1      15.614  33.669  40.851  0.00  0.00     0.010 A 
ATOM     17  C   LIG     1      15.943  33.267  39.544  0.00  0.00     0.017 A 
BRANCH  15  18
ATOM     18  C   LIG     1      16.259  34.542  43.117  0.00  0.00     0.311 C 
BRANCH  18  19
ATOM     19  N   LIG     1      15.805  35.946  43.384  0.00  0.00     0.096 N 
ATOM     20  C   LIG     1      14.336  36.037  43.646  0.00  0.00     0.303 C 
ATOM     21  C   LIG     1      13.840  37.448  44.042  0.00  0.00     0.302 C 
ATOM     22  N   LIG     1      14.668  37.993  45.153  0.00  0.00     0.087 N 
ATOM     23  C   LIG     1      14.112  39.219  45.785  0.00  0.00     0.310 C 
ATOM     24  C   LIG     1      16.112  38.067  44.793  0.00  0.00     0.302 C 
ATOM     25  C   LIG     1      16.649  36.669  44.389  0.00  0.00     0.303 C 
ENDBRANCH  18  19
ENDBRANCH  15  18
ENDBRANCH   9  12
ENDBRANCH   1   8
BRANCH   6  26
ATOM     26  N   LIG     1      19.288  29.836  33.499  0.00  0.00    -0.191 N 
ATOM     27  H   LIG     1      18.844  29.185  34.006  0.00  0.00     0.184 HD
BRANCH  26  28
ATOM     28  C   LIG     1      19.358  29.583  32.213  0.00  0.00     0.683 A 
ATOM     29  N   LIG     1      18.635  30.275  31.296  0.00  0.00    -0.191 N 
ATOM     30  C   LIG     1      18.589  29.978  29.966  0.00  0.00     0.062 A 
ATOM     31  HN  LIG     1      18.088  31.071  31.625  1.00  0.00     0.184 HD
ATOM     32  C   LIG     1      19.332  28.841  29.555  0.00  0.00     0.048 A 
ATOM     33  C   LIG     1      20.109  28.144  30.498  0.00  0.00     0.108 A 
ATOM     34  N   LIG     1      20.112  28.538  31.794  0.00  0.00    -0.202 N 
ATOM     35  HN  LIG     1      20.692  28.038  32.467  1.00  0.00     0.183 HD
BRANCH  30  36
ATOM     36  C   LIG     1      17.808  30.804  29.095  0.00  0.00     0.007 A 
ATOM     37  C   LIG     1      17.516  30.421  27.758  0.00  0.00     0.016 A 
ATOM     38  C   LIG     1      16.744  31.223  26.897  0.00  0.00     0.018 A 
ATOM     39  C   LIG     1      16.248  32.443  27.382  0.00  0.00     0.087 A 
ATOM     40  N   LIG     1      16.519  32.811  28.656  0.00  0.00    -0.374 N 
ATOM     41  C   LIG     1      17.259  32.049  29.499  0.00  0.00     0.101 A 
ATOM     42  HN  LIG     1      16.151  33.699  28.996  1.00  0.00     0.164 HD
ENDBRANCH  30  36
ENDBRANCH  26  28
ENDBRANCH   6  26
TORSDOF 7
ENDMDL
MODEL 7
REMARK VINA RESULT:     -10.0      5.259      8.103
REMARK  7 active torsions:
REMARK  status: ('A' for Active; 'I' for Inactive)
REMARK    1  A    between atoms: C_1  and  N_10 
REMARK    2  A    between atoms: C_6  and  N_26 
REMARK       I    between atoms: C_9  and  N_10 
REMARK    3  A    between atoms: C_9  and  C_12 
REMARK    4  A    between atoms: C_15  and  C_18 
REMARK    5  A    between atoms: C_18  and  N_19 
REMARK    6  A    between atoms: N_26  and  C_28 
REMARK    7  A    between atoms: C_33  and  C_36 
ROOT
ATOM      1  C   LIG     1      17.683  33.069  37.708  0.00  0.00     0.037 A 
ATOM      2  C   LIG     1      18.955  33.433  38.191  0.00  0.00     0.030 A 
ATOM      3  C   LIG     1      19.106  34.050  39.440  0.00  0.00     0.011 A 
ATOM      4  C   LIG     1      17.995  34.321  40.273  0.00  0.00    -0.035 A 
ATOM      5  C   LIG     1      18.361  34.940  41.579  0.00  0.00     0.050 C 
ATOM      6  C   LIG     1      16.692  33.959  39.808  0.00  0.00     0.057 A 
ATOM      7  C   LIG     1      16.570  33.331  38.543  0.00  0.00     0.060 A 
ENDROOT
BRANCH   1   8
ATOM      8  N   LIG     1      17.679  32.493  36.500  0.00  0.00    -0.323 N 
ATOM      9  C   LIG     1      17.825  32.934  35.279  0.00  0.00     0.256 C 
ATOM     10  O   LIG     1      18.226  34.081  35.115  0.00  0.00    -0.267 OA
ATOM     11  H   LIG     1      17.559  31.569  36.548  0.00  0.00     0.169 HD
BRANCH   9  12
ATOM     12  C   LIG     1      17.595  32.124  34.151  0.00  0.00     0.032 A 
ATOM     13  C   LIG     1      16.382  31.414  33.945  0.00  0.00     0.017 A 
ATOM     14  C   LIG     1      16.188  30.564  32.839  0.00  0.00     0.010 A 
ATOM     15  C   LIG     1      17.202  30.389  31.873  0.00  0.00    -0.030 A 
ATOM     16  C   LIG     1      18.394  31.128  32.028  0.00  0.00     0.010 A 
ATOM     17  C   LIG     1      18.584  31.963  33.143  0.00  0.00     0.017 A 
BRANCH  15  18
ATOM     18  C   LIG     1      17.060  29.422  30.753  0.00  0.00     0.311 C 
BRANCH  18  19
ATOM     19  N   LIG     1      16.673  28.027  31.142  0.00  0.00     0.096 N 
ATOM     20  C   LIG     1      15.787  27.371  30.132  0.00  0.00     0.303 C 
ATOM     21  C   LIG     1      15.457  25.890  30.432  0.00  0.00     0.302 C 
ATOM     22  N   LIG     1      16.707  25.126  30.698  0.00  0.00     0.087 N 
ATOM     23  C   LIG     1      16.526  23.650  30.732  0.00  0.00     0.310 C 
ATOM     24  C   LIG     1      17.480  25.694  31.839  0.00  0.00     0.302 C 
ATOM     25  C   LIG     1      17.832  27.182  31.576  0.00  0.00     0.303 C 
ENDBRANCH  18  19
ENDBRANCH  15  18
ENDBRANCH   9  12
ENDBRANCH   1   8
BRANCH   6  26
ATOM     26  N   LIG     1      15.522  34.101  40.441  0.00  0.00    -0.191 N 
ATOM     27  H   LIG     1      14.757  34.129  39.901  0.00  0.00     0.184 HD
BRANCH  26  28
ATOM     28  C   LIG     1      15.294  34.190  41.730  0.00  0.00     0.683 A 
ATOM     29  N   LIG     1      15.122  35.382  42.357  0.00  0.00    -0.191 N 
ATOM     30  C   LIG     1      14.994  35.532  43.707  0.00  0.00     0.062 A 
ATOM     31  HN  LIG     1      15.086  36.221  41.779  1.00  0.00     0.184 HD
ATOM     32  C   LIG     1      15.087  34.344  44.478  0.00  0.00     0.048 A 
ATOM     33  C   LIG     1      15.231  33.106  43.827  0.00  0.00     0.108 A 
ATOM     34  N   LIG     1      15.318  33.059  42.476  0.00  0.00    -0.202 N 
ATOM     35  HN  LIG     1      15.404  32.155  42.011  1.00  0.00     0.183 HD
BRANCH  30  36
ATOM     36  C   LIG     1      14.788  36.844  44.244  0.00  0.00     0.007 A 
ATOM     37  C   LIG     1      15.869  37.647  44.700  0.00  0.00     0.016 A 
ATOM     38  C   LIG     1      15.678  38.939  45.223  0.00  0.00     0.018 A 
ATOM     39  C   LIG     1      14.372  39.446  45.294  0.00  0.00     0.087 A 
ATOM     40  N   LIG     1      13.340  38.688  44.858  0.00  0.00    -0.374 N 
ATOM     41  C   LIG     1      13.507  37.443  44.349  0.00  0.00     0.101 A 
ATOM     42  HN  LIG     1      12.395  39.071  44.915  1.00  0.00     0.164 HD
ENDBRANCH  30  36
ENDBRANCH  26  28
ENDBRANCH   6  26
TORSDOF 7
ENDMDL
MODEL 8
REMARK VINA RESULT:      -9.9      3.006      3.514
REMARK  7 active torsions:
REMARK  status: ('A' for Active; 'I' for Inactive)
REMARK    1  A    between atoms: C_1  and  N_10 
REMARK    2  A    between atoms: C_6  and  N_26 
REMARK       I    between atoms: C_9  and  N_10 
REMARK    3  A    between atoms: C_9  and  C_12 
REMARK    4  A    between atoms: C_15  and  C_18 
REMARK    5  A    between atoms: C_18  and  N_19 
REMARK    6  A    between atoms: N_26  and  C_28 
REMARK    7  A    between atoms: C_33  and  C_36 
ROOT
ATOM      1  C   LIG     1      18.389  33.432  37.869  0.00  0.00     0.037 A 
ATOM      2  C   LIG     1      17.143  33.299  37.226  0.00  0.00     0.030 A 
ATOM      3  C   LIG     1      15.943  33.508  37.919  0.00  0.00     0.011 A 
ATOM      4  C   LIG     1      15.931  33.874  39.287  0.00  0.00    -0.035 A 
ATOM      5  C   LIG     1      14.562  34.095  39.836  0.00  0.00     0.050 C 
ATOM      6  C   LIG     1      17.182  34.019  39.963  0.00  0.00     0.057 A 
ATOM      7  C   LIG     1      18.379  33.806  39.235  0.00  0.00     0.060 A 
ENDROOT
BRANCH   1   8
ATOM      8  N   LIG     1      19.454  33.199  37.094  0.00  0.00    -0.323 N 
ATOM      9  C   LIG     1      20.044  32.120  36.654  0.00  0.00     0.256 C 
ATOM     10  O   LIG     1      19.470  31.045  36.788  0.00  0.00    -0.267 OA
ATOM     11  H   LIG     1      19.852  33.987  36.792  0.00  0.00     0.169 HD
BRANCH   9  12
ATOM     12  C   LIG     1      21.281  32.154  35.985  0.00  0.00     0.032 A 
ATOM     13  C   LIG     1      21.545  33.025  34.894  0.00  0.00     0.017 A 
ATOM     14  C   LIG     1      22.770  33.009  34.200  0.00  0.00     0.010 A 
ATOM     15  C   LIG     1      23.803  32.121  34.571  0.00  0.00    -0.030 A 
ATOM     16  C   LIG     1      23.583  31.286  35.687  0.00  0.00     0.010 A 
ATOM     17  C   LIG     1      22.351  31.300  36.366  0.00  0.00     0.017 A 
BRANCH  15  18
ATOM     18  C   LIG     1      25.064  32.014  33.793  0.00  0.00     0.311 C 
BRANCH  18  19
ATOM     19  N   LIG     1      25.393  33.189  32.921  0.00  0.00     0.096 N 
ATOM     20  C   LIG     1      26.303  34.168  33.592  0.00  0.00     0.303 C 
ATOM     21  C   LIG     1      26.765  35.338  32.691  0.00  0.00     0.302 C 
ATOM     22  N   LIG     1      27.310  34.817  31.407  0.00  0.00     0.087 N 
ATOM     23  C   LIG     1      28.022  35.833  30.588  0.00  0.00     0.310 C 
ATOM     24  C   LIG     1      26.311  33.995  30.666  0.00  0.00     0.302 C 
ATOM     25  C   LIG     1      25.822  32.809  31.537  0.00  0.00     0.303 C 
ENDBRANCH  18  19
ENDBRANCH  15  18
ENDBRANCH   9  12
ENDBRANCH   1   8
BRANCH   6  26
ATOM     26  N   LIG     1      17.395  34.378  41.235  0.00  0.00    -0.191 N 
ATOM     27  H   LIG     1      18.266  34.645  41.452  0.00  0.00     0.184 HD
BRANCH  26  28
ATOM     28  C   LIG     1      16.537  34.424  42.226  0.00  0.00     0.683 A 
ATOM     29  N   LIG     1      16.149  35.593  42.797  0.00  0.00    -0.191 N 
ATOM     30  C   LIG     1      15.349  35.686  43.898  0.00  0.00     0.062 A 
ATOM     31  HN  LIG     1      16.478  36.460  42.373  1.00  0.00     0.184 HD
ATOM     32  C   LIG     1      14.943  34.456  44.480  0.00  0.00     0.048 A 
ATOM     33  C   LIG     1      15.317  33.245  43.869  0.00  0.00     0.108 A 
ATOM     34  N   LIG     1      16.090  33.260  42.757  0.00  0.00    -0.202 N 
ATOM     35  HN  LIG     1      16.341  32.378  42.310  1.00  0.00     0.183 HD
BRANCH  30  36
ATOM     36  C   LIG     1      14.988  36.982  44.388  0.00  0.00     0.007 A 
ATOM     37  C   LIG     1      15.966  37.944  44.761  0.00  0.00     0.016 A 
ATOM     38  C   LIG     1      15.620  39.222  45.236  0.00  0.00     0.018 A 
ATOM     39  C   LIG     1      14.261  39.553  45.344  0.00  0.00     0.087 A 
ATOM     40  N   LIG     1      13.326  38.643  44.987  0.00  0.00    -0.374 N 
ATOM     41  C   LIG     1      13.641  37.408  44.525  0.00  0.00     0.101 A 
ATOM     42  HN  LIG     1      12.341  38.897  45.070  1.00  0.00     0.164 HD
ENDBRANCH  30  36
ENDBRANCH  26  28
ENDBRANCH   6  26
TORSDOF 7
ENDMDL
MODEL 9
REMARK VINA RESULT:      -9.7      2.072      2.708
REMARK  7 active torsions:
REMARK  status: ('A' for Active; 'I' for Inactive)
REMARK    1  A    between atoms: C_1  and  N_10 
REMARK    2  A    between atoms: C_6  and  N_26 
REMARK       I    between atoms: C_9  and  N_10 
REMARK    3  A    between atoms: C_9  and  C_12 
REMARK    4  A    between atoms: C_15  and  C_18 
REMARK    5  A    between atoms: C_18  and  N_19 
REMARK    6  A    between atoms: N_26  and  C_28 
REMARK    7  A    between atoms: C_33  and  C_36 
ROOT
ATOM      1  C   LIG     1      18.451  33.493  37.818  0.00  0.00     0.037 A 
ATOM      2  C   LIG     1      17.208  33.310  37.181  0.00  0.00     0.030 A 
ATOM      3  C   LIG     1      16.005  33.473  37.880  0.00  0.00     0.011 A 
ATOM      4  C   LIG     1      15.984  33.842  39.246  0.00  0.00    -0.035 A 
ATOM      5  C   LIG     1      14.611  34.010  39.802  0.00  0.00     0.050 C 
ATOM      6  C   LIG     1      17.232  34.038  39.916  0.00  0.00     0.057 A 
ATOM      7  C   LIG     1      18.433  33.871  39.183  0.00  0.00     0.060 A 
ENDROOT
BRANCH   1   8
ATOM      8  N   LIG     1      19.521  33.300  37.038  0.00  0.00    -0.323 N 
ATOM      9  C   LIG     1      20.343  32.303  36.847  0.00  0.00     0.256 C 
ATOM     10  O   LIG     1      20.050  31.207  37.311  0.00  0.00    -0.267 OA
ATOM     11  H   LIG     1      19.709  34.043  36.504  0.00  0.00     0.169 HD
BRANCH   9  12
ATOM     12  C   LIG     1      21.518  32.429  36.083  0.00  0.00     0.032 A 
ATOM     13  C   LIG     1      22.497  31.403  35.999  0.00  0.00     0.017 A 
ATOM     14  C   LIG     1      23.694  31.565  35.275  0.00  0.00     0.010 A 
ATOM     15  C   LIG     1      23.968  32.766  34.586  0.00  0.00    -0.030 A 
ATOM     16  C   LIG     1      22.984  33.778  34.610  0.00  0.00     0.010 A 
ATOM     17  C   LIG     1      21.798  33.612  35.347  0.00  0.00     0.017 A 
BRANCH  15  18
ATOM     18  C   LIG     1      25.265  33.000  33.899  0.00  0.00     0.311 C 
BRANCH  18  19
ATOM     19  N   LIG     1      26.474  33.036  34.786  0.00  0.00     0.096 N 
ATOM     20  C   LIG     1      26.220  33.747  36.077  0.00  0.00     0.303 C 
ATOM     21  C   LIG     1      27.403  33.708  37.075  0.00  0.00     0.302 C 
ATOM     22  N   LIG     1      27.877  32.309  37.260  0.00  0.00     0.087 N 
ATOM     23  C   LIG     1      28.824  32.129  38.391  0.00  0.00     0.310 C 
ATOM     24  C   LIG     1      28.302  31.686  35.974  0.00  0.00     0.302 C 
ATOM     25  C   LIG     1      27.142  31.705  34.945  0.00  0.00     0.303 C 
ENDBRANCH  18  19
ENDBRANCH  15  18
ENDBRANCH   9  12
ENDBRANCH   1   8
BRANCH   6  26
ATOM     26  N   LIG     1      17.437  34.409  41.186  0.00  0.00    -0.191 N 
ATOM     27  H   LIG     1      18.301  34.696  41.402  0.00  0.00     0.184 HD
BRANCH  26  28
ATOM     28  C   LIG     1      16.578  34.444  42.177  0.00  0.00     0.683 A 
ATOM     29  N   LIG     1      16.179  35.606  42.753  0.00  0.00    -0.191 N 
ATOM     30  C   LIG     1      15.378  35.687  43.854  0.00  0.00     0.062 A 
ATOM     31  HN  LIG     1      16.501  36.479  42.334  1.00  0.00     0.184 HD
ATOM     32  C   LIG     1      14.981  34.451  44.428  0.00  0.00     0.048 A 
ATOM     33  C   LIG     1      15.365  33.247  43.812  0.00  0.00     0.108 A 
ATOM     34  N   LIG     1      16.140  33.273  42.701  0.00  0.00    -0.202 N 
ATOM     35  HN  LIG     1      16.397  32.396  42.250  1.00  0.00     0.183 HD
BRANCH  30  36
ATOM     36  C   LIG     1      15.005  36.978  44.349  0.00  0.00     0.007 A 
ATOM     37  C   LIG     1      15.975  37.935  44.754  0.00  0.00     0.016 A 
ATOM     38  C   LIG     1      15.619  39.208  45.236  0.00  0.00     0.018 A 
ATOM     39  C   LIG     1      14.258  39.538  45.318  0.00  0.00     0.087 A 
ATOM     40  N   LIG     1      13.330  38.632  44.931  0.00  0.00    -0.374 N 
ATOM     41  C   LIG     1      13.656  37.402  44.462  0.00  0.00     0.101 A 
ATOM     42  HN  LIG     1      12.344  38.885  44.994  1.00  0.00     0.164 HD
ENDBRANCH  30  36
ENDBRANCH  26  28
ENDBRANCH   6  26
TORSDOF 7
ENDMDL
